   Input file: phinp.dat
  Output file: phinp.out
Database file: phreeqc.dat

------------------
Reading data base.
------------------

	SOLUTION_MASTER_SPECIES
	SOLUTION_SPECIES
	PHASES
	EXCHANGE_MASTER_SPECIES
	EXCHANGE_SPECIES
	SURFACE_MASTER_SPECIES
	SURFACE_SPECIES
	RATES
------------------------------------
Reading input data for simulation 1.
------------------------------------

	SOLUTION 1 #New Version 
	units mol/kgw 
	temp 25.000000 
	C(4)       1.000000000000e-10     # comp 
	Ca       1.000000000000e-10     # comp 
	Mg       1.000000000000e-03     # comp 
	Cl       2.000000000000e-03     # comp 
	pH       6.935617257360e+00 charge        # comp 
	pe       4.000000000000e+00       # comp 
	PRINT
	 reset true
	 selected_output true
	SELECTED_OUTPUT
	file phout_sel.dat
	high_precision
	reset false
	USER_PUNCH
	heading  C(4) Ca Mg Cl pH  H+  pe  CO3-2
	 10 PUNCH  TOT("C(4)"), TOT("Ca"), TOT("Mg"), TOT("Cl"),
	 20 PUNCH  -LA("H+"),  MOL("H+"),   -LA("e-")
	 90 PUNCH MOL("CO3-2")
	END
-------------------------------------------
Beginning of initial solution calculations.
-------------------------------------------

Initial solution 1.	

-----------------------------Solution composition------------------------------

	Elements           Molality       Moles

	C(4)              1.000e-10   1.000e-10
	Ca                1.000e-10   1.000e-10
	Cl                2.000e-03   2.000e-03
	Mg                1.000e-03   1.000e-03

----------------------------Description of solution----------------------------

                                       pH  =   6.945      Charge balance
                                       pe  =   4.000    
                        Activity of water  =   1.000
                           Ionic strength  =   3.000e-03
                       Mass of water (kg)  =   1.000e+00
                 Total alkalinity (eq/kg)  =   2.000e-10
                       Total CO2 (mol/kg)  =   1.000e-10
                      Temperature (deg C)  =  25.00
                  Electrical balance (eq)  =   3.324e-16
 Percent error, 100*(Cat-|An|)/(Cat+|An|)  =   0.00
                               Iterations  =   4
                                  Total H  = 1.110124e+02
                                  Total O  = 5.550622e+01

----------------------------Distribution of species----------------------------

                                               Log       Log       Log    mole V
   Species          Molality    Activity  Molality  Activity     Gamma   cm3/mol

   H+              1.204e-07   1.134e-07    -6.919    -6.945    -0.026      0.00
   OH-             9.375e-08   8.829e-08    -7.028    -7.054    -0.026     (0)  
   H2O             5.551e+01   9.999e-01     1.744    -0.000     0.000     18.07
C(4)          1.000e-10
   HCO3-           8.000e-11   7.535e-11   -10.097   -10.123    -0.026     (0)  
   CO2             1.920e-11   1.921e-11   -10.717   -10.716     0.000     (0)  
   MgHCO3+         7.366e-13   6.937e-13   -12.133   -12.159    -0.026     (0)  
   CO3-2           3.961e-14   3.117e-14   -13.402   -13.506    -0.104     (0)  
   MgCO3           2.339e-14   2.340e-14   -13.631   -13.631     0.000     (0)  
   CaHCO3+         8.032e-20   7.565e-20   -19.095   -19.121    -0.026     (0)  
   CaCO3           4.117e-21   4.120e-21   -20.385   -20.385     0.000     (0)  
Ca            1.000e-10
   Ca+2            1.000e-10   7.869e-11   -10.000   -10.104    -0.104     (0)  
   CaOH+           1.223e-16   1.152e-16   -15.913   -15.939    -0.026     (0)  
   CaHCO3+         8.032e-20   7.565e-20   -19.095   -19.121    -0.026     (0)  
   CaCO3           4.117e-21   4.120e-21   -20.385   -20.385     0.000     (0)  
Cl            2.000e-03
   Cl-             2.000e-03   1.884e-03    -2.699    -2.725    -0.026     (0)  
H(0)          1.819e-25
   H2              9.094e-26   9.100e-26   -25.041   -25.041     0.000     (0)  
Mg            1.000e-03
   Mg+2            1.000e-03   7.868e-04    -3.000    -3.104    -0.104     (0)  
   MgOH+           2.675e-08   2.520e-08    -7.573    -7.599    -0.026     (0)  
   MgHCO3+         7.366e-13   6.937e-13   -12.133   -12.159    -0.026     (0)  
   MgCO3           2.339e-14   2.340e-14   -13.631   -13.631     0.000     (0)  
O(0)          0.000e+00
   O2              0.000e+00   0.000e+00   -42.298   -42.298     0.000     (0)  

------------------------------Saturation indices-------------------------------

	Phase               SI   log IAP   log K(298 K,   1 atm)

	Aragonite       -15.27    -23.61   -8.34  CaCO3
	Calcite         -15.13    -23.61   -8.48  CaCO3
	CO2(g)           -9.25    -10.72   -1.47  CO2
	Dolomite(dis)   -23.13    -40.22  -17.09  CaMg(CO3)2
	H2(g)           -21.85     21.15   43.00  H2
	O2(g)           -39.41    -42.30   -2.89  O2


------------------
End of simulation.
------------------

------------------------------------
Reading input data for simulation 2.
------------------------------------

	SOLUTION 2 #New Version 
	units mol/kgw 
	temp 25.000000 
	C(4)       7.530595029590e-09     # comp 
	Ca       7.526510498322e-09     # comp 
	Mg       9.999959596810e-04     # comp 
	Cl       1.999991911191e-03     # comp 
	pH       6.944787630635e+00 charge        # comp 
	pe       4.000000000000e+00       # comp 
	END
-------------------------------------------
Beginning of initial solution calculations.
-------------------------------------------

Initial solution 2.	

-----------------------------Solution composition------------------------------

	Elements           Molality       Moles

	C(4)              7.531e-09   7.531e-09
	Ca                7.527e-09   7.527e-09
	Cl                2.000e-03   2.000e-03
	Mg                1.000e-03   1.000e-03

----------------------------Description of solution----------------------------

                                       pH  =   6.961      Charge balance
                                       pe  =   4.000    
                        Activity of water  =   1.000
                           Ionic strength  =   3.000e-03
                       Mass of water (kg)  =   1.000e+00
                 Total alkalinity (eq/kg)  =   1.506e-08
                       Total CO2 (mol/kg)  =   7.531e-09
                      Temperature (deg C)  =  25.00
                  Electrical balance (eq)  =   3.323e-16
 Percent error, 100*(Cat-|An|)/(Cat+|An|)  =   0.00
                               Iterations  =   4
                                  Total H  = 1.110124e+02
                                  Total O  = 5.550622e+01

----------------------------Distribution of species----------------------------

                                               Log       Log       Log    mole V
   Species          Molality    Activity  Molality  Activity     Gamma   cm3/mol

   H+              1.161e-07   1.093e-07    -6.935    -6.961    -0.026      0.00
   OH-             9.724e-08   9.158e-08    -7.012    -7.038    -0.026     (0)  
   H2O             5.551e+01   9.999e-01     1.744    -0.000     0.000     18.07
C(4)          7.531e-09
   HCO3-           6.067e-09   5.714e-09    -8.217    -8.243    -0.026     (0)  
   CO2             1.403e-09   1.404e-09    -8.853    -8.853     0.000     (0)  
   MgHCO3+         5.585e-11   5.260e-11   -10.253   -10.279    -0.026     (0)  
   CO3-2           3.115e-12   2.451e-12   -11.506   -11.611    -0.104     (0)  
   MgCO3           1.839e-12   1.841e-12   -11.735   -11.735     0.000     (0)  
   CaHCO3+         4.584e-16   4.317e-16   -15.339   -15.365    -0.026     (0)  
   CaCO3           2.437e-17   2.439e-17   -16.613   -16.613     0.000     (0)  
Ca            7.527e-09
   Ca+2            7.527e-09   5.922e-09    -8.123    -8.228    -0.104     (0)  
   CaOH+           9.547e-15   8.991e-15   -14.020   -14.046    -0.026     (0)  
   CaHCO3+         4.584e-16   4.317e-16   -15.339   -15.365    -0.026     (0)  
   CaCO3           2.437e-17   2.439e-17   -16.613   -16.613     0.000     (0)  
Cl            2.000e-03
   Cl-             2.000e-03   1.884e-03    -2.699    -2.725    -0.026     (0)  
H(0)          1.691e-25
   H2              8.453e-26   8.458e-26   -25.073   -25.073     0.000     (0)  
Mg            1.000e-03
   Mg+2            1.000e-03   7.868e-04    -3.000    -3.104    -0.104     (0)  
   MgOH+           2.775e-08   2.613e-08    -7.557    -7.583    -0.026     (0)  
   MgHCO3+         5.585e-11   5.260e-11   -10.253   -10.279    -0.026     (0)  
   MgCO3           1.839e-12   1.841e-12   -11.735   -11.735     0.000     (0)  
O(0)          0.000e+00
   O2              0.000e+00   0.000e+00   -42.235   -42.235     0.000     (0)  

------------------------------Saturation indices-------------------------------

	Phase               SI   log IAP   log K(298 K,   1 atm)

	Aragonite       -11.50    -19.84   -8.34  CaCO3
	Calcite         -11.36    -19.84   -8.48  CaCO3
	CO2(g)           -7.38     -8.85   -1.47  CO2
	Dolomite(dis)   -17.46    -34.55  -17.09  CaMg(CO3)2
	H2(g)           -21.88     21.12   43.00  H2
	O2(g)           -39.34    -42.23   -2.89  O2


------------------
End of simulation.
------------------

------------------------------------
Reading input data for simulation 3.
------------------------------------

	SOLUTION 3 #New Version 
	units mol/kgw 
	temp 25.000000 
	C(4)       2.159462259977e-08     # comp 
	Ca       2.158184720522e-08     # comp 
	Mg       9.999883414786e-04     # comp 
	Cl       1.999976657402e-03     # comp 
	pH       6.973585567974e+00 charge        # comp 
	pe       4.000000000000e+00       # comp 
	END
-------------------------------------------
Beginning of initial solution calculations.
-------------------------------------------

Initial solution 3.	

-----------------------------Solution composition------------------------------

	Elements           Molality       Moles

	C(4)              2.159e-08   2.159e-08
	Ca                2.158e-08   2.158e-08
	Cl                2.000e-03   2.000e-03
	Mg                1.000e-03   1.000e-03

----------------------------Description of solution----------------------------

                                       pH  =   6.991      Charge balance
                                       pe  =   4.000    
                        Activity of water  =   1.000
                           Ionic strength  =   3.000e-03
                       Mass of water (kg)  =   1.000e+00
                 Total alkalinity (eq/kg)  =   4.319e-08
                       Total CO2 (mol/kg)  =   2.159e-08
                      Temperature (deg C)  =  25.00
                  Electrical balance (eq)  =   3.337e-16
 Percent error, 100*(Cat-|An|)/(Cat+|An|)  =   0.00
                               Iterations  =   4
                                  Total H  = 1.110124e+02
                                  Total O  = 5.550622e+01

----------------------------Distribution of species----------------------------

                                               Log       Log       Log    mole V
   Species          Molality    Activity  Molality  Activity     Gamma   cm3/mol

   H+              1.084e-07   1.021e-07    -6.965    -6.991    -0.026      0.00
   OH-             1.041e-07   9.804e-08    -6.983    -7.009    -0.026     (0)  
   H2O             5.551e+01   9.999e-01     1.744    -0.000     0.000     18.07
C(4)          2.159e-08
   HCO3-           1.761e-08   1.659e-08    -7.754    -7.780    -0.026     (0)  
   CO2             3.806e-09   3.808e-09    -8.420    -8.419     0.000     (0)  
   MgHCO3+         1.621e-10   1.527e-10    -9.790    -9.816    -0.026     (0)  
   CO3-2           9.682e-12   7.618e-12   -11.014   -11.118    -0.104     (0)  
   MgCO3           5.716e-12   5.720e-12   -11.243   -11.243     0.000     (0)  
   CaHCO3+         3.816e-15   3.594e-15   -14.418   -14.444    -0.026     (0)  
   CaCO3           2.172e-16   2.173e-16   -15.663   -15.663     0.000     (0)  
Ca            2.158e-08
   Ca+2            2.158e-08   1.698e-08    -7.666    -7.770    -0.104     (0)  
   CaOH+           2.930e-14   2.760e-14   -13.533   -13.559    -0.026     (0)  
   CaHCO3+         3.816e-15   3.594e-15   -14.418   -14.444    -0.026     (0)  
   CaCO3           2.172e-16   2.173e-16   -15.663   -15.663     0.000     (0)  
Cl            2.000e-03
   Cl-             2.000e-03   1.884e-03    -2.699    -2.725    -0.026     (0)  
H(0)          1.475e-25
   H2              7.376e-26   7.381e-26   -25.132   -25.132     0.000     (0)  
Mg            1.000e-03
   Mg+2            1.000e-03   7.868e-04    -3.000    -3.104    -0.104     (0)  
   MgOH+           2.970e-08   2.798e-08    -7.527    -7.553    -0.026     (0)  
   MgHCO3+         1.621e-10   1.527e-10    -9.790    -9.816    -0.026     (0)  
   MgCO3           5.716e-12   5.720e-12   -11.243   -11.243     0.000     (0)  
O(0)          0.000e+00
   O2              0.000e+00   0.000e+00   -42.117   -42.116     0.000     (0)  

------------------------------Saturation indices-------------------------------

	Phase               SI   log IAP   log K(298 K,   1 atm)

	Aragonite       -10.55    -18.89   -8.34  CaCO3
	Calcite         -10.41    -18.89   -8.48  CaCO3
	CO2(g)           -6.95     -8.42   -1.47  CO2
	Dolomite(dis)   -16.02    -33.11  -17.09  CaMg(CO3)2
	H2(g)           -21.94     21.06   43.00  H2
	O2(g)           -39.22    -42.12   -2.89  O2


------------------
End of simulation.
------------------

------------------------------------
Reading input data for simulation 4.
------------------------------------

	SOLUTION 4 #New Version 
	units mol/kgw 
	temp 25.000000 
	C(4)       4.637956758699e-08     # comp 
	Ca       4.634860220571e-08     # comp 
	Mg       9.999749997465e-04     # comp 
	Cl       1.999949937556e-03     # comp 
	pH       7.022006610795e+00 charge        # comp 
	pe       4.000000000000e+00       # comp 
	END
-------------------------------------------
Beginning of initial solution calculations.
-------------------------------------------

Initial solution 4.	

-----------------------------Solution composition------------------------------

	Elements           Molality       Moles

	C(4)              4.638e-08   4.638e-08
	Ca                4.635e-08   4.635e-08
	Cl                2.000e-03   2.000e-03
	Mg                1.000e-03   1.000e-03

----------------------------Description of solution----------------------------

                                       pH  =   7.041      Charge balance
                                       pe  =   4.000    
                        Activity of water  =   1.000
                           Ionic strength  =   3.000e-03
                       Mass of water (kg)  =   1.000e+00
                 Total alkalinity (eq/kg)  =   9.276e-08
                       Total CO2 (mol/kg)  =   4.638e-08
                      Temperature (deg C)  =  25.00
                  Electrical balance (eq)  =   3.311e-16
 Percent error, 100*(Cat-|An|)/(Cat+|An|)  =   0.00
                               Iterations  =   4
                                  Total H  = 1.110124e+02
                                  Total O  = 5.550622e+01

----------------------------Distribution of species----------------------------

                                               Log       Log       Log    mole V
   Species          Molality    Activity  Molality  Activity     Gamma   cm3/mol

   OH-             1.169e-07   1.101e-07    -6.932    -6.958    -0.026     (0)  
   H+              9.652e-08   9.091e-08    -7.015    -7.041    -0.026      0.00
   H2O             5.551e+01   9.999e-01     1.744    -0.000     0.000     18.07
C(4)          4.638e-08
   HCO3-           3.857e-08   3.632e-08    -7.414    -7.440    -0.026     (0)  
   CO2             7.419e-09   7.425e-09    -8.130    -8.129     0.000     (0)  
   MgHCO3+         3.551e-10   3.344e-10    -9.450    -9.476    -0.026     (0)  
   CO3-2           2.381e-11   1.874e-11   -10.623   -10.727    -0.104     (0)  
   MgCO3           1.406e-11   1.407e-11   -10.852   -10.852     0.000     (0)  
   CaHCO3+         1.795e-14   1.690e-14   -13.746   -13.772    -0.026     (0)  
   CaCO3           1.147e-15   1.148e-15   -14.940   -14.940     0.000     (0)  
Ca            4.635e-08
   Ca+2            4.635e-08   3.647e-08    -7.334    -7.438    -0.104     (0)  
   CaOH+           7.069e-14   6.658e-14   -13.151   -13.177    -0.026     (0)  
   CaHCO3+         1.795e-14   1.690e-14   -13.746   -13.772    -0.026     (0)  
   CaCO3           1.147e-15   1.148e-15   -14.940   -14.940     0.000     (0)  
Cl            2.000e-03
   Cl-             2.000e-03   1.884e-03    -2.699    -2.725    -0.026     (0)  
H(0)          1.169e-25
   H2              5.846e-26   5.850e-26   -25.233   -25.233     0.000     (0)  
Mg            1.000e-03
   Mg+2            9.999e-04   7.868e-04    -3.000    -3.104    -0.104     (0)  
   MgOH+           3.336e-08   3.142e-08    -7.477    -7.503    -0.026     (0)  
   MgHCO3+         3.551e-10   3.344e-10    -9.450    -9.476    -0.026     (0)  
   MgCO3           1.406e-11   1.407e-11   -10.852   -10.852     0.000     (0)  
O(0)          0.000e+00
   O2              0.000e+00   0.000e+00   -41.915   -41.914     0.000     (0)  

------------------------------Saturation indices-------------------------------

	Phase               SI   log IAP   log K(298 K,   1 atm)

	Aragonite        -9.83    -18.17   -8.34  CaCO3
	Calcite          -9.69    -18.17   -8.48  CaCO3
	CO2(g)           -6.66     -8.13   -1.47  CO2
	Dolomite(dis)   -14.91    -32.00  -17.09  CaMg(CO3)2
	H2(g)           -22.04     20.96   43.00  H2
	O2(g)           -39.02    -41.91   -2.89  O2


------------------
End of simulation.
------------------

------------------------------------
Reading input data for simulation 5.
------------------------------------

	SOLUTION 5 #New Version 
	units mol/kgw 
	temp 25.000000 
	C(4)       8.801403630332e-08     # comp 
	Ca       8.794548694598e-08     # comp 
	Mg       9.999527812560e-04     # comp 
	Cl       1.999905425405e-03     # comp 
	pH       7.096691150602e+00 charge        # comp 
	pe       4.000000000000e+00       # comp 
	END
-------------------------------------------
Beginning of initial solution calculations.
-------------------------------------------

Initial solution 5.	

-----------------------------Solution composition------------------------------

	Elements           Molality       Moles

	C(4)              8.801e-08   8.801e-08
	Ca                8.795e-08   8.795e-08
	Cl                2.000e-03   2.000e-03
	Mg                1.000e-03   1.000e-03

----------------------------Description of solution----------------------------

                                       pH  =   7.121      Charge balance
                                       pe  =   4.000    
                        Activity of water  =   1.000
                           Ionic strength  =   3.000e-03
                       Mass of water (kg)  =   1.000e+00
                 Total alkalinity (eq/kg)  =   1.760e-07
                       Total CO2 (mol/kg)  =   8.801e-08
                      Temperature (deg C)  =  25.00
                  Electrical balance (eq)  =   3.328e-16
 Percent error, 100*(Cat-|An|)/(Cat+|An|)  =   0.00
                               Iterations  =   4
                                  Total H  = 1.110124e+02
                                  Total O  = 5.550622e+01

----------------------------Distribution of species----------------------------

                                               Log       Log       Log    mole V
   Species          Molality    Activity  Molality  Activity     Gamma   cm3/mol

   OH-             1.403e-07   1.322e-07    -6.853    -6.879    -0.026     (0)  
   H+              8.041e-08   7.573e-08    -7.095    -7.121    -0.026      0.00
   H2O             5.551e+01   9.999e-01     1.744    -0.000     0.000     18.07
C(4)          8.801e-08
   HCO3-           7.518e-08   7.081e-08    -7.124    -7.150    -0.026     (0)  
   CO2             1.205e-08   1.206e-08    -7.919    -7.919     0.000     (0)  
   MgHCO3+         6.921e-10   6.519e-10    -9.160    -9.186    -0.026     (0)  
   CO3-2           5.573e-11   4.385e-11   -10.254   -10.358    -0.104     (0)  
   MgCO3           3.290e-11   3.292e-11   -10.483   -10.483     0.000     (0)  
   CaHCO3+         6.638e-14   6.252e-14   -13.178   -13.204    -0.026     (0)  
   CaCO3           5.094e-15   5.097e-15   -14.293   -14.293     0.000     (0)  
Ca            8.795e-08
   Ca+2            8.795e-08   6.920e-08    -7.056    -7.160    -0.104     (0)  
   CaOH+           1.610e-13   1.516e-13   -12.793   -12.819    -0.026     (0)  
   CaHCO3+         6.638e-14   6.252e-14   -13.178   -13.204    -0.026     (0)  
   CaCO3           5.094e-15   5.097e-15   -14.293   -14.293     0.000     (0)  
Cl            2.000e-03
   Cl-             2.000e-03   1.884e-03    -2.699    -2.725    -0.026     (0)  
H(0)          8.116e-26
   H2              4.058e-26   4.061e-26   -25.392   -25.391     0.000     (0)  
Mg            1.000e-03
   Mg+2            9.999e-04   7.868e-04    -3.000    -3.104    -0.104     (0)  
   MgOH+           4.005e-08   3.772e-08    -7.397    -7.423    -0.026     (0)  
   MgHCO3+         6.921e-10   6.519e-10    -9.160    -9.186    -0.026     (0)  
   MgCO3           3.290e-11   3.292e-11   -10.483   -10.483     0.000     (0)  
O(0)          0.000e+00
   O2              0.000e+00   0.000e+00   -41.598   -41.597     0.000     (0)  

------------------------------Saturation indices-------------------------------

	Phase               SI   log IAP   log K(298 K,   1 atm)

	Aragonite        -9.18    -17.52   -8.34  CaCO3
	Calcite          -9.04    -17.52   -8.48  CaCO3
	CO2(g)           -6.45     -7.92   -1.47  CO2
	Dolomite(dis)   -13.89    -30.98  -17.09  CaMg(CO3)2
	H2(g)           -22.20     20.80   43.00  H2
	O2(g)           -38.70    -41.60   -2.89  O2


------------------
End of simulation.
------------------

------------------------------------
Reading input data for simulation 6.
------------------------------------

	SOLUTION 6 #New Version 
	units mol/kgw 
	temp 25.000000 
	C(4)       1.555367056934e-07     # comp 
	Ca       1.553911857924e-07     # comp 
	Mg       9.999171516882e-04     # comp 
	Cl       1.999834012326e-03     # comp 
	pH       7.202141158465e+00 charge        # comp 
	pe       4.000000000000e+00       # comp 
	END
-------------------------------------------
Beginning of initial solution calculations.
-------------------------------------------

Initial solution 6.	

-----------------------------Solution composition------------------------------

	Elements           Molality       Moles

	C(4)              1.555e-07   1.555e-07
	Ca                1.554e-07   1.554e-07
	Cl                2.000e-03   2.000e-03
	Mg                9.999e-04   9.999e-04

----------------------------Description of solution----------------------------

                                       pH  =   7.234      Charge balance
                                       pe  =   4.000    
                        Activity of water  =   1.000
                           Ionic strength  =   3.000e-03
                       Mass of water (kg)  =   1.000e+00
                 Total alkalinity (eq/kg)  =   3.111e-07
                       Total CO2 (mol/kg)  =   1.555e-07
                      Temperature (deg C)  =  25.00
                  Electrical balance (eq)  =   3.340e-16
 Percent error, 100*(Cat-|An|)/(Cat+|An|)  =   0.00
                               Iterations  =   4
                                  Total H  = 1.110124e+02
                                  Total O  = 5.550622e+01

----------------------------Distribution of species----------------------------

                                               Log       Log       Log    mole V
   Species          Molality    Activity  Molality  Activity     Gamma   cm3/mol

   OH-             1.822e-07   1.716e-07    -6.739    -6.765    -0.026     (0)  
   H+              6.194e-08   5.833e-08    -7.208    -7.234    -0.026      0.00
   H2O             5.551e+01   9.999e-01     1.744    -0.000     0.000     18.07
C(4)          1.555e-07
   HCO3-           1.371e-07   1.292e-07    -6.863    -6.889    -0.026     (0)  
   CO2             1.693e-08   1.694e-08    -7.771    -7.771     0.000     (0)  
   MgHCO3+         1.262e-09   1.189e-09    -8.899    -8.925    -0.026     (0)  
   CO3-2           1.320e-10   1.038e-10    -9.880    -9.984    -0.104     (0)  
   MgCO3           7.790e-11   7.796e-11   -10.108   -10.108     0.000     (0)  
   CaHCO3+         2.139e-13   2.015e-13   -12.670   -12.696    -0.026     (0)  
   CaCO3           2.131e-14   2.133e-14   -13.671   -13.671     0.000     (0)  
Ca            1.554e-07
   Ca+2            1.554e-07   1.223e-07    -6.809    -6.913    -0.104     (0)  
   CaOH+           3.693e-13   3.478e-13   -12.433   -12.459    -0.026     (0)  
   CaHCO3+         2.139e-13   2.015e-13   -12.670   -12.696    -0.026     (0)  
   CaCO3           2.131e-14   2.133e-14   -13.671   -13.671     0.000     (0)  
Cl            2.000e-03
   Cl-             2.000e-03   1.884e-03    -2.699    -2.725    -0.026     (0)  
H(0)          4.815e-26
   H2              2.407e-26   2.409e-26   -25.618   -25.618     0.000     (0)  
Mg            9.999e-04
   Mg+2            9.999e-04   7.867e-04    -3.000    -3.104    -0.104     (0)  
   MgOH+           5.199e-08   4.897e-08    -7.284    -7.310    -0.026     (0)  
   MgHCO3+         1.262e-09   1.189e-09    -8.899    -8.925    -0.026     (0)  
   MgCO3           7.790e-11   7.796e-11   -10.108   -10.108     0.000     (0)  
O(0)          0.000e+00
   O2              0.000e+00   0.000e+00   -41.144   -41.144     0.000     (0)  

------------------------------Saturation indices-------------------------------

	Phase               SI   log IAP   log K(298 K,   1 atm)

	Aragonite        -8.56    -16.90   -8.34  CaCO3
	Calcite          -8.42    -16.90   -8.48  CaCO3
	CO2(g)           -6.30     -7.77   -1.47  CO2
	Dolomite(dis)   -12.89    -29.98  -17.09  CaMg(CO3)2
	H2(g)           -22.43     20.57   43.00  H2
	O2(g)           -38.25    -41.14   -2.89  O2


------------------
End of simulation.
------------------

------------------------------------
Reading input data for simulation 7.
------------------------------------

	SOLUTION 7 #New Version 
	units mol/kgw 
	temp 25.000000 
	C(4)       2.620951960397e-07     # comp 
	Ca       2.617927853258e-07     # comp 
	Mg       9.998617219520e-04     # comp 
	Cl       1.999722839070e-03     # comp 
	pH       7.337821116316e+00 charge        # comp 
	pe       4.000000000000e+00       # comp 
	END
-------------------------------------------
Beginning of initial solution calculations.
-------------------------------------------

Initial solution 7.	

-----------------------------Solution composition------------------------------

	Elements           Molality       Moles

	C(4)              2.621e-07   2.621e-07
	Ca                2.618e-07   2.618e-07
	Cl                2.000e-03   2.000e-03
	Mg                9.999e-04   9.999e-04

----------------------------Description of solution----------------------------

                                       pH  =   7.379      Charge balance
                                       pe  =   4.000    
                        Activity of water  =   1.000
                           Ionic strength  =   3.000e-03
                       Mass of water (kg)  =   1.000e+00
                 Total alkalinity (eq/kg)  =   5.242e-07
                       Total CO2 (mol/kg)  =   2.621e-07
                      Temperature (deg C)  =  25.00
                  Electrical balance (eq)  =   3.335e-16
 Percent error, 100*(Cat-|An|)/(Cat+|An|)  =   0.00
                               Iterations  =   4
                                  Total H  = 1.110124e+02
                                  Total O  = 5.550622e+01

----------------------------Distribution of species----------------------------

                                               Log       Log       Log    mole V
   Species          Molality    Activity  Molality  Activity     Gamma   cm3/mol

   OH-             2.544e-07   2.396e-07    -6.594    -6.620    -0.026     (0)  
   H+              4.436e-08   4.178e-08    -7.353    -7.379    -0.026      0.00
   H2O             5.551e+01   9.999e-01     1.744    -0.000     0.000     18.07
C(4)          2.621e-07
   HCO3-           2.383e-07   2.245e-07    -6.623    -6.649    -0.026     (0)  
   CO2             2.107e-08   2.108e-08    -7.676    -7.676     0.000     (0)  
   MgHCO3+         2.194e-09   2.066e-09    -8.659    -8.685    -0.026     (0)  
   CO3-2           3.202e-10   2.520e-10    -9.495    -9.599    -0.104     (0)  
   MgCO3           1.890e-10   1.892e-10    -9.723    -9.723     0.000     (0)  
   CaHCO3+         6.263e-13   5.899e-13   -12.203   -12.229    -0.026     (0)  
   CaCO3           8.713e-14   8.720e-14   -13.060   -13.060     0.000     (0)  
Ca            2.618e-07
   Ca+2            2.618e-07   2.060e-07    -6.582    -6.686    -0.104     (0)  
   CaOH+           8.688e-13   8.183e-13   -12.061   -12.087    -0.026     (0)  
   CaHCO3+         6.263e-13   5.899e-13   -12.203   -12.229    -0.026     (0)  
   CaCO3           8.713e-14   8.720e-14   -13.060   -13.060     0.000     (0)  
Cl            2.000e-03
   Cl-             2.000e-03   1.883e-03    -2.699    -2.725    -0.026     (0)  
H(0)          2.469e-26
   H2              1.235e-26   1.236e-26   -25.908   -25.908     0.000     (0)  
Mg            9.999e-04
   Mg+2            9.998e-04   7.867e-04    -3.000    -3.104    -0.104     (0)  
   MgOH+           7.259e-08   6.837e-08    -7.139    -7.165    -0.026     (0)  
   MgHCO3+         2.194e-09   2.066e-09    -8.659    -8.685    -0.026     (0)  
   MgCO3           1.890e-10   1.892e-10    -9.723    -9.723     0.000     (0)  
O(0)          0.000e+00
   O2              0.000e+00   0.000e+00   -40.564   -40.564     0.000     (0)  

------------------------------Saturation indices-------------------------------

	Phase               SI   log IAP   log K(298 K,   1 atm)

	Aragonite        -7.95    -16.28   -8.34  CaCO3
	Calcite          -7.80    -16.28   -8.48  CaCO3
	CO2(g)           -6.21     -7.68   -1.47  CO2
	Dolomite(dis)   -11.90    -28.99  -17.09  CaMg(CO3)2
	H2(g)           -22.72     20.28   43.00  H2
	O2(g)           -37.67    -40.56   -2.89  O2


------------------
End of simulation.
------------------

------------------------------------
Reading input data for simulation 8.
------------------------------------

	SOLUTION 8 #New Version 
	units mol/kgw 
	temp 25.000000 
	C(4)       4.265953883893e-07     # comp 
	Ca       4.259745833330e-07     # comp 
	Mg       9.997776624705e-04     # comp 
	Cl       1.999554083316e-03     # comp 
	pH       7.497061239561e+00 charge        # comp 
	pe       4.000000000000e+00       # comp 
	END
-------------------------------------------
Beginning of initial solution calculations.
-------------------------------------------

Initial solution 8.	

-----------------------------Solution composition------------------------------

	Elements           Molality       Moles

	C(4)              4.266e-07   4.266e-07
	Ca                4.260e-07   4.260e-07
	Cl                2.000e-03   2.000e-03
	Mg                9.998e-04   9.998e-04

----------------------------Description of solution----------------------------

                                       pH  =   7.545      Charge balance
                                       pe  =   4.000    
                        Activity of water  =   1.000
                           Ionic strength  =   3.000e-03
                       Mass of water (kg)  =   1.000e+00
                 Total alkalinity (eq/kg)  =   8.532e-07
                       Total CO2 (mol/kg)  =   4.266e-07
                      Temperature (deg C)  =  25.00
                  Electrical balance (eq)  =   3.367e-16
 Percent error, 100*(Cat-|An|)/(Cat+|An|)  =   0.00
                               Iterations  =   4
                                  Total H  = 1.110124e+02
                                  Total O  = 5.550622e+01

----------------------------Distribution of species----------------------------

                                               Log       Log       Log    mole V
   Species          Molality    Activity  Molality  Activity     Gamma   cm3/mol

   OH-             3.731e-07   3.514e-07    -6.428    -6.454    -0.026     (0)  
   H+              3.024e-08   2.849e-08    -7.519    -7.545    -0.026      0.00
   H2O             5.551e+01   9.999e-01     1.744    -0.000     0.000     18.07
C(4)          4.266e-07
   HCO3-           3.977e-07   3.746e-07    -6.400    -6.426    -0.026     (0)  
   CO2             2.397e-08   2.399e-08    -7.620    -7.620     0.000     (0)  
   MgHCO3+         3.660e-09   3.447e-09    -8.436    -8.462    -0.026     (0)  
   CO3-2           7.837e-10   6.167e-10    -9.106    -9.210    -0.104     (0)  
   MgCO3           4.626e-10   4.629e-10    -9.335    -9.335     0.000     (0)  
   CaHCO3+         1.701e-12   1.602e-12   -11.769   -11.795    -0.026     (0)  
   CaCO3           3.470e-13   3.472e-13   -12.460   -12.459     0.000     (0)  
Ca            4.260e-07
   Ca+2            4.260e-07   3.352e-07    -6.371    -6.475    -0.104     (0)  
   CaOH+           2.073e-12   1.953e-12   -11.683   -11.709    -0.026     (0)  
   CaHCO3+         1.701e-12   1.602e-12   -11.769   -11.795    -0.026     (0)  
   CaCO3           3.470e-13   3.472e-13   -12.460   -12.459     0.000     (0)  
Cl            2.000e-03
   Cl-             2.000e-03   1.883e-03    -2.699    -2.725    -0.026     (0)  
H(0)          1.148e-26
   H2              5.740e-27   5.744e-27   -26.241   -26.241     0.000     (0)  
Mg            9.998e-04
   Mg+2            9.997e-04   7.866e-04    -3.000    -3.104    -0.104     (0)  
   MgOH+           1.064e-07   1.003e-07    -6.973    -6.999    -0.026     (0)  
   MgHCO3+         3.660e-09   3.447e-09    -8.436    -8.462    -0.026     (0)  
   MgCO3           4.626e-10   4.629e-10    -9.335    -9.335     0.000     (0)  
O(0)          2.525e-40
   O2              1.262e-40   1.263e-40   -39.899   -39.899     0.000     (0)  

------------------------------Saturation indices-------------------------------

	Phase               SI   log IAP   log K(298 K,   1 atm)

	Aragonite        -7.35    -15.68   -8.34  CaCO3
	Calcite          -7.20    -15.68   -8.48  CaCO3
	CO2(g)           -6.15     -7.62   -1.47  CO2
	Dolomite(dis)   -10.91    -28.00  -17.09  CaMg(CO3)2
	H2(g)           -23.05     19.95   43.00  H2
	O2(g)           -37.01    -39.90   -2.89  O2


------------------
End of simulation.
------------------

------------------------------------
Reading input data for simulation 9.
------------------------------------

	SOLUTION 9 #New Version 
	units mol/kgw 
	temp 25.000000 
	C(4)       6.759650011234e-07     # comp 
	Ca       6.747049419423e-07     # comp 
	Mg       9.996529969606e-04     # comp 
	Cl       1.999303473785e-03     # comp 
	pH       7.669670847667e+00 charge        # comp 
	pe       4.000000000000e+00       # comp 
	END
-------------------------------------------
Beginning of initial solution calculations.
-------------------------------------------

Initial solution 9.	

-----------------------------Solution composition------------------------------

	Elements           Molality       Moles

	C(4)              6.760e-07   6.760e-07
	Ca                6.747e-07   6.747e-07
	Cl                1.999e-03   1.999e-03
	Mg                9.997e-04   9.997e-04

----------------------------Description of solution----------------------------

                                       pH  =   7.721      Charge balance
                                       pe  =   4.000    
                        Activity of water  =   1.000
                           Ionic strength  =   3.001e-03
                       Mass of water (kg)  =   1.000e+00
                 Total alkalinity (eq/kg)  =   1.352e-06
                       Total CO2 (mol/kg)  =   6.760e-07
                      Temperature (deg C)  =  25.00
                  Electrical balance (eq)  =   3.354e-16
 Percent error, 100*(Cat-|An|)/(Cat+|An|)  =   0.00
                               Iterations  =   4
                                  Total H  = 1.110124e+02
                                  Total O  = 5.550622e+01

----------------------------Distribution of species----------------------------

                                               Log       Log       Log    mole V
   Species          Molality    Activity  Molality  Activity     Gamma   cm3/mol

   OH-             5.594e-07   5.268e-07    -6.252    -6.278    -0.026     (0)  
   H+              2.017e-08   1.900e-08    -7.695    -7.721    -0.026      0.00
   H2O             5.551e+01   9.999e-01     1.744    -0.000     0.000     18.07
C(4)          6.760e-07
   HCO3-           6.413e-07   6.040e-07    -6.193    -6.219    -0.026     (0)  
   CO2             2.579e-08   2.580e-08    -7.589    -7.588     0.000     (0)  
   MgHCO3+         5.901e-09   5.558e-09    -8.229    -8.255    -0.026     (0)  
   CO3-2           1.894e-09   1.491e-09    -8.723    -8.827    -0.104     (0)  
   MgCO3           1.118e-09   1.119e-09    -8.952    -8.951     0.000     (0)  
   CaHCO3+         4.343e-12   4.091e-12   -11.362   -11.388    -0.026     (0)  
   CaCO3           1.328e-12   1.329e-12   -11.877   -11.876     0.000     (0)  
Ca            6.747e-07
   Ca+2            6.747e-07   5.309e-07    -6.171    -6.275    -0.104     (0)  
   CaOH+           4.923e-12   4.636e-12   -11.308   -11.334    -0.026     (0)  
   CaHCO3+         4.343e-12   4.091e-12   -11.362   -11.388    -0.026     (0)  
   CaCO3           1.328e-12   1.329e-12   -11.877   -11.876     0.000     (0)  
Cl            1.999e-03
   Cl-             1.999e-03   1.883e-03    -2.699    -2.725    -0.026     (0)  
H(0)          5.109e-27
   H2              2.554e-27   2.556e-27   -26.593   -26.592     0.000     (0)  
Mg            9.997e-04
   Mg+2            9.995e-04   7.864e-04    -3.000    -3.104    -0.104     (0)  
   MgOH+           1.595e-07   1.503e-07    -6.797    -6.823    -0.026     (0)  
   MgHCO3+         5.901e-09   5.558e-09    -8.229    -8.255    -0.026     (0)  
   MgCO3           1.118e-09   1.119e-09    -8.952    -8.951     0.000     (0)  
O(0)          1.275e-39
   O2              6.376e-40   6.380e-40   -39.195   -39.195     0.000     (0)  

------------------------------Saturation indices-------------------------------

	Phase               SI   log IAP   log K(298 K,   1 atm)

	Aragonite        -6.77    -15.10   -8.34  CaCO3
	Calcite          -6.62    -15.10   -8.48  CaCO3
	CO2(g)           -6.12     -7.59   -1.47  CO2
	Dolomite(dis)    -9.94    -27.03  -17.09  CaMg(CO3)2
	H2(g)           -23.40     19.60   43.00  H2
	O2(g)           -36.30    -39.20   -2.89  O2


------------------
End of simulation.
------------------

-------------------------------------
Reading input data for simulation 10.
-------------------------------------

	SOLUTION 10 #New Version 
	units mol/kgw 
	temp 25.000000 
	C(4)       1.048256719232e-06     # comp 
	Ca       1.045739652247e-06     # comp 
	Mg       9.994717719203e-04     # comp 
	Cl       1.998938509687e-03     # comp 
	pH       7.846632814211e+00 charge        # comp 
	pe       4.000000000000e+00       # comp 
	END
-------------------------------------------
Beginning of initial solution calculations.
-------------------------------------------

Initial solution 10.	

-----------------------------Solution composition------------------------------

	Elements           Molality       Moles

	C(4)              1.048e-06   1.048e-06
	Ca                1.046e-06   1.046e-06
	Cl                1.999e-03   1.999e-03
	Mg                9.995e-04   9.995e-04

----------------------------Description of solution----------------------------

                                       pH  =   7.899      Charge balance
                                       pe  =   4.000    
                        Activity of water  =   1.000
                           Ionic strength  =   3.001e-03
                       Mass of water (kg)  =   1.000e+00
                 Total alkalinity (eq/kg)  =   2.097e-06
                       Total CO2 (mol/kg)  =   1.048e-06
                      Temperature (deg C)  =  25.00
                  Electrical balance (eq)  =   3.360e-16
 Percent error, 100*(Cat-|An|)/(Cat+|An|)  =   0.00
                               Iterations  =   4
                                  Total H  = 1.110124e+02
                                  Total O  = 5.550622e+01

----------------------------Distribution of species----------------------------

                                               Log       Log       Log    mole V
   Species          Molality    Activity  Molality  Activity     Gamma   cm3/mol

   OH-             8.415e-07   7.925e-07    -6.075    -6.101    -0.026     (0)  
   H+              1.341e-08   1.263e-08    -7.873    -7.899    -0.026      0.00
   H2O             5.551e+01   9.999e-01     1.744    -0.000     0.000     18.07
C(4)          1.048e-06
   HCO3-           1.005e-06   9.466e-07    -5.998    -6.024    -0.026     (0)  
   CO2             2.686e-08   2.688e-08    -7.571    -7.571     0.000     (0)  
   MgHCO3+         9.246e-09   8.708e-09    -8.034    -8.060    -0.026     (0)  
   CO3-2           4.467e-09   3.514e-09    -8.350    -8.454    -0.104     (0)  
   MgCO3           2.635e-09   2.637e-09    -8.579    -8.579     0.000     (0)  
   CaHCO3+         1.055e-11   9.937e-12   -10.977   -11.003    -0.026     (0)  
   CaCO3           4.854e-12   4.858e-12   -11.314   -11.314     0.000     (0)  
Ca            1.046e-06
   Ca+2            1.046e-06   8.228e-07    -5.981    -6.085    -0.104     (0)  
   CaOH+           1.148e-11   1.081e-11   -10.940   -10.966    -0.026     (0)  
   CaHCO3+         1.055e-11   9.937e-12   -10.977   -11.003    -0.026     (0)  
   CaCO3           4.854e-12   4.858e-12   -11.314   -11.314     0.000     (0)  
Cl            1.999e-03
   Cl-             1.999e-03   1.883e-03    -2.699    -2.725    -0.026     (0)  
H(0)          2.257e-27
   H2              1.129e-27   1.129e-27   -26.947   -26.947     0.000     (0)  
Mg            9.995e-04
   Mg+2            9.992e-04   7.862e-04    -3.000    -3.104    -0.104     (0)  
   MgOH+           2.399e-07   2.260e-07    -6.620    -6.646    -0.026     (0)  
   MgHCO3+         9.246e-09   8.708e-09    -8.034    -8.060    -0.026     (0)  
   MgCO3           2.635e-09   2.637e-09    -8.579    -8.579     0.000     (0)  
O(0)          6.530e-39
   O2              3.265e-39   3.267e-39   -38.486   -38.486     0.000     (0)  

------------------------------Saturation indices-------------------------------

	Phase               SI   log IAP   log K(298 K,   1 atm)

	Aragonite        -6.20    -14.54   -8.34  CaCO3
	Calcite          -6.06    -14.54   -8.48  CaCO3
	CO2(g)           -6.10     -7.57   -1.47  CO2
	Dolomite(dis)    -9.01    -26.10  -17.09  CaMg(CO3)2
	H2(g)           -23.75     19.24   43.00  H2
	O2(g)           -35.59    -38.49   -2.89  O2


------------------
End of simulation.
------------------

-------------------------------------
Reading input data for simulation 11.
-------------------------------------

	SOLUTION 11 #New Version 
	units mol/kgw 
	temp 25.000000 
	C(4)       1.596926873458e-06     # comp 
	Ca       1.592003674910e-06     # comp 
	Mg       9.992131118508e-04     # comp 
	Cl       1.998416377283e-03     # comp 
	pH       8.022449908808e+00 charge        # comp 
	pe       4.000000000000e+00       # comp 
	END
-------------------------------------------
Beginning of initial solution calculations.
-------------------------------------------

Initial solution 11.	

-----------------------------Solution composition------------------------------

	Elements           Molality       Moles

	C(4)              1.597e-06   1.597e-06
	Ca                1.592e-06   1.592e-06
	Cl                1.998e-03   1.998e-03
	Mg                9.992e-04   9.992e-04

----------------------------Description of solution----------------------------

                                       pH  =   8.073      Charge balance
                                       pe  =   4.000    
                        Activity of water  =   1.000
                           Ionic strength  =   3.002e-03
                       Mass of water (kg)  =   1.000e+00
                 Total alkalinity (eq/kg)  =   3.194e-06
                       Total CO2 (mol/kg)  =   1.597e-06
                      Temperature (deg C)  =  25.00
                  Electrical balance (eq)  =   3.390e-16
 Percent error, 100*(Cat-|An|)/(Cat+|An|)  =   0.00
                               Iterations  =   4
                                  Total H  = 1.110124e+02
                                  Total O  = 5.550622e+01

----------------------------Distribution of species----------------------------

                                               Log       Log       Log    mole V
   Species          Molality    Activity  Molality  Activity     Gamma   cm3/mol

   OH-             1.258e-06   1.185e-06    -5.900    -5.926    -0.026     (0)  
   H+              8.968e-09   8.446e-09    -8.047    -8.073    -0.026      0.00
   H2O             5.551e+01   9.999e-01     1.744    -0.000     0.000     18.07
C(4)          1.597e-06
   HCO3-           1.539e-06   1.449e-06    -5.813    -5.839    -0.026     (0)  
   CO2             2.751e-08   2.753e-08    -7.561    -7.560     0.000     (0)  
   MgHCO3+         1.415e-08   1.333e-08    -7.849    -7.875    -0.026     (0)  
   CO3-2           1.023e-08   8.048e-09    -7.990    -8.094    -0.104     (0)  
   MgCO3           6.031e-09   6.035e-09    -8.220    -8.219     0.000     (0)  
   CaHCO3+         2.459e-11   2.316e-11   -10.609   -10.635    -0.026     (0)  
   CaCO3           1.692e-11   1.693e-11   -10.772   -10.771     0.000     (0)  
Ca            1.592e-06
   Ca+2            1.592e-06   1.253e-06    -5.798    -5.902    -0.104     (0)  
   CaOH+           2.613e-11   2.461e-11   -10.583   -10.609    -0.026     (0)  
   CaHCO3+         2.459e-11   2.316e-11   -10.609   -10.635    -0.026     (0)  
   CaCO3           1.692e-11   1.693e-11   -10.772   -10.771     0.000     (0)  
Cl            1.998e-03
   Cl-             1.998e-03   1.882e-03    -2.699    -2.725    -0.026     (0)  
H(0)          1.009e-27
   H2              5.047e-28   5.050e-28   -27.297   -27.297     0.000     (0)  
Mg            9.992e-04
   Mg+2            9.988e-04   7.859e-04    -3.001    -3.105    -0.104     (0)  
   MgOH+           3.587e-07   3.378e-07    -6.445    -6.471    -0.026     (0)  
   MgHCO3+         1.415e-08   1.333e-08    -7.849    -7.875    -0.026     (0)  
   MgCO3           6.031e-09   6.035e-09    -8.220    -8.219     0.000     (0)  
O(0)          3.266e-38
   O2              1.633e-38   1.634e-38   -37.787   -37.787     0.000     (0)  

------------------------------Saturation indices-------------------------------

	Phase               SI   log IAP   log K(298 K,   1 atm)

	Aragonite        -5.66    -14.00   -8.34  CaCO3
	Calcite          -5.52    -14.00   -8.48  CaCO3
	CO2(g)           -6.09     -7.56   -1.47  CO2
	Dolomite(dis)    -8.11    -25.20  -17.09  CaMg(CO3)2
	H2(g)           -24.10     18.89   43.00  H2
	O2(g)           -34.89    -37.79   -2.89  O2


------------------
End of simulation.
------------------

-------------------------------------
Reading input data for simulation 12.
-------------------------------------

	SOLUTION 12 #New Version 
	units mol/kgw 
	temp 25.000000 
	C(4)       2.396798752398e-06     # comp 
	Ca       2.387367278212e-06     # comp 
	Mg       9.988502185307e-04     # comp 
	Cl       1.997681574090e-03     # comp 
	pH       8.194534606848e+00 charge        # comp 
	pe       4.000000000000e+00       # comp 
	END
-------------------------------------------
Beginning of initial solution calculations.
-------------------------------------------

Initial solution 12.	

-----------------------------Solution composition------------------------------

	Elements           Molality       Moles

	C(4)              2.397e-06   2.397e-06
	Ca                2.387e-06   2.387e-06
	Cl                1.998e-03   1.998e-03
	Mg                9.989e-04   9.989e-04

----------------------------Description of solution----------------------------

                                       pH  =   8.244      Charge balance
                                       pe  =   4.000    
                        Activity of water  =   1.000
                           Ionic strength  =   3.003e-03
                       Mass of water (kg)  =   1.000e+00
                 Total alkalinity (eq/kg)  =   4.794e-06
                       Total CO2 (mol/kg)  =   2.397e-06
                      Temperature (deg C)  =  25.00
                  Electrical balance (eq)  =   3.342e-16
 Percent error, 100*(Cat-|An|)/(Cat+|An|)  =   0.00
                               Iterations  =   4
                                  Total H  = 1.110124e+02
                                  Total O  = 5.550623e+01

----------------------------Distribution of species----------------------------

                                               Log       Log       Log    mole V
   Species          Molality    Activity  Molality  Activity     Gamma   cm3/mol

   OH-             1.864e-06   1.755e-06    -5.730    -5.756    -0.026     (0)  
   H+              6.056e-09   5.703e-09    -8.218    -8.244    -0.026      0.00
   H2O             5.551e+01   9.999e-01     1.744    -0.000     0.000     18.07
C(4)          2.397e-06
   HCO3-           2.311e-06   2.177e-06    -5.636    -5.662    -0.026     (0)  
   CO2             2.790e-08   2.792e-08    -7.554    -7.554     0.000     (0)  
   CO3-2           2.275e-08   1.790e-08    -7.643    -7.747    -0.104     (0)  
   MgHCO3+         2.124e-08   2.001e-08    -7.673    -7.699    -0.026     (0)  
   MgCO3           1.341e-08   1.342e-08    -7.873    -7.872     0.000     (0)  
   CaCO3           5.644e-11   5.648e-11   -10.248   -10.248     0.000     (0)  
   CaHCO3+         5.539e-11   5.216e-11   -10.257   -10.283    -0.026     (0)  
Ca            2.387e-06
   Ca+2            2.387e-06   1.878e-06    -5.622    -5.726    -0.104     (0)  
   CaOH+           5.803e-11   5.465e-11   -10.236   -10.262    -0.026     (0)  
   CaCO3           5.644e-11   5.648e-11   -10.248   -10.248     0.000     (0)  
   CaHCO3+         5.539e-11   5.216e-11   -10.257   -10.283    -0.026     (0)  
Cl            1.998e-03
   Cl-             1.998e-03   1.881e-03    -2.699    -2.726    -0.026     (0)  
H(0)          4.602e-28
   H2              2.301e-28   2.303e-28   -27.638   -27.638     0.000     (0)  
Mg            9.989e-04
   Mg+2            9.983e-04   7.854e-04    -3.001    -3.105    -0.104     (0)  
   MgOH+           5.309e-07   5.000e-07    -6.275    -6.301    -0.026     (0)  
   MgHCO3+         2.124e-08   2.001e-08    -7.673    -7.699    -0.026     (0)  
   MgCO3           1.341e-08   1.342e-08    -7.873    -7.872     0.000     (0)  
O(0)          1.571e-37
   O2              7.855e-38   7.860e-38   -37.105   -37.105     0.000     (0)  

------------------------------Saturation indices-------------------------------

	Phase               SI   log IAP   log K(298 K,   1 atm)

	Aragonite        -5.14    -13.47   -8.34  CaCO3
	Calcite          -4.99    -13.47   -8.48  CaCO3
	CO2(g)           -6.09     -7.55   -1.47  CO2
	Dolomite(dis)    -7.24    -24.33  -17.09  CaMg(CO3)2
	H2(g)           -24.45     18.55   43.00  H2
	O2(g)           -34.21    -37.10   -2.89  O2


------------------
End of simulation.
------------------

-------------------------------------
Reading input data for simulation 13.
-------------------------------------

	SOLUTION 13 #New Version 
	units mol/kgw 
	temp 25.000000 
	C(4)       3.552653476944e-06     # comp 
	Ca       3.534787028156e-06     # comp 
	Mg       9.983495044675e-04     # comp 
	Cl       1.996663276011e-03     # comp 
	pH       8.361908397201e+00 charge        # comp 
	pe       4.000000000000e+00       # comp 
	END
-------------------------------------------
Beginning of initial solution calculations.
-------------------------------------------

Initial solution 13.	

-----------------------------Solution composition------------------------------

	Elements           Molality       Moles

	C(4)              3.553e-06   3.553e-06
	Ca                3.535e-06   3.535e-06
	Cl                1.997e-03   1.997e-03
	Mg                9.983e-04   9.983e-04

----------------------------Description of solution----------------------------

                                       pH  =   8.410      Charge balance
                                       pe  =   4.000    
                        Activity of water  =   1.000
                           Ionic strength  =   3.004e-03
                       Mass of water (kg)  =   1.000e+00
                 Total alkalinity (eq/kg)  =   7.105e-06
                       Total CO2 (mol/kg)  =   3.553e-06
                      Temperature (deg C)  =  25.00
                  Electrical balance (eq)  =   3.392e-16
 Percent error, 100*(Cat-|An|)/(Cat+|An|)  =   0.00
                               Iterations  =   4
                                  Total H  = 1.110124e+02
                                  Total O  = 5.550623e+01

----------------------------Distribution of species----------------------------

                                               Log       Log       Log    mole V
   Species          Molality    Activity  Molality  Activity     Gamma   cm3/mol

   OH-             2.730e-06   2.571e-06    -5.564    -5.590    -0.026     (0)  
   H+              4.135e-09   3.894e-09    -8.384    -8.410    -0.026      0.00
   H2O             5.551e+01   9.999e-01     1.744    -0.000     0.000     18.07
C(4)          3.553e-06
   HCO3-           3.415e-06   3.216e-06    -5.467    -5.493    -0.026     (0)  
   CO3-2           4.923e-08   3.873e-08    -7.308    -7.412    -0.104     (0)  
   MgHCO3+         3.136e-08   2.953e-08    -7.504    -7.530    -0.026     (0)  
   MgCO3           2.898e-08   2.900e-08    -7.538    -7.538     0.000     (0)  
   CO2             2.814e-08   2.816e-08    -7.551    -7.550     0.000     (0)  
   CaCO3           1.808e-10   1.809e-10    -9.743    -9.743     0.000     (0)  
   CaHCO3+         1.211e-10   1.141e-10    -9.917    -9.943    -0.026     (0)  
Ca            3.535e-06
   Ca+2            3.534e-06   2.781e-06    -5.452    -5.556    -0.104     (0)  
   CaCO3           1.808e-10   1.809e-10    -9.743    -9.743     0.000     (0)  
   CaOH+           1.258e-10   1.185e-10    -9.900    -9.926    -0.026     (0)  
   CaHCO3+         1.211e-10   1.141e-10    -9.917    -9.943    -0.026     (0)  
Cl            1.997e-03
   Cl-             1.997e-03   1.880e-03    -2.700    -2.726    -0.026     (0)  
H(0)          2.146e-28
   H2              1.073e-28   1.074e-28   -27.969   -27.969     0.000     (0)  
Mg            9.983e-04
   Mg+2            9.975e-04   7.848e-04    -3.001    -3.105    -0.104     (0)  
   MgOH+           7.769e-07   7.317e-07    -6.110    -6.136    -0.026     (0)  
   MgHCO3+         3.136e-08   2.953e-08    -7.504    -7.530    -0.026     (0)  
   MgCO3           2.898e-08   2.900e-08    -7.538    -7.538     0.000     (0)  
O(0)          7.229e-37
   O2              3.614e-37   3.617e-37   -36.442   -36.442     0.000     (0)  

------------------------------Saturation indices-------------------------------

	Phase               SI   log IAP   log K(298 K,   1 atm)

	Aragonite        -4.63    -12.97   -8.34  CaCO3
	Calcite          -4.49    -12.97   -8.48  CaCO3
	CO2(g)           -6.08     -7.55   -1.47  CO2
	Dolomite(dis)    -6.40    -23.49  -17.09  CaMg(CO3)2
	H2(g)           -24.78     18.22   43.00  H2
	O2(g)           -33.55    -36.44   -2.89  O2


------------------
End of simulation.
------------------

-------------------------------------
Reading input data for simulation 14.
-------------------------------------

	SOLUTION 14 #New Version 
	units mol/kgw 
	temp 25.000000 
	C(4)       5.211421850356e-06     # comp 
	Ca       5.177334538646e-06     # comp 
	Mg       9.976703440493e-04     # comp 
	Cl       1.995272513446e-03     # comp 
	pH       8.524294599930e+00 charge        # comp 
	pe       4.000000000000e+00       # comp 
	END
-------------------------------------------
Beginning of initial solution calculations.
-------------------------------------------

Initial solution 14.	

-----------------------------Solution composition------------------------------

	Elements           Molality       Moles

	C(4)              5.211e-06   5.211e-06
	Ca                5.177e-06   5.177e-06
	Cl                1.995e-03   1.995e-03
	Mg                9.977e-04   9.977e-04

----------------------------Description of solution----------------------------

                                       pH  =   8.570      Charge balance
                                       pe  =   4.000    
                        Activity of water  =   1.000
                           Ionic strength  =   3.006e-03
                       Mass of water (kg)  =   1.000e+00
                 Total alkalinity (eq/kg)  =   1.042e-05
                       Total CO2 (mol/kg)  =   5.211e-06
                      Temperature (deg C)  =  25.00
                  Electrical balance (eq)  =   3.367e-16
 Percent error, 100*(Cat-|An|)/(Cat+|An|)  =   0.00
                               Iterations  =   4
                                  Total H  = 1.110124e+02
                                  Total O  = 5.550624e+01

----------------------------Distribution of species----------------------------

                                               Log       Log       Log    mole V
   Species          Molality    Activity  Molality  Activity     Gamma   cm3/mol

   OH-             3.953e-06   3.723e-06    -5.403    -5.429    -0.026     (0)  
   H+              2.855e-09   2.689e-09    -8.544    -8.570    -0.026      0.00
   H2O             5.551e+01   9.999e-01     1.744    -0.000     0.000     18.07
C(4)          5.211e-06
   HCO3-           4.972e-06   4.682e-06    -5.303    -5.330    -0.026     (0)  
   CO3-2           1.038e-07   8.167e-08    -6.984    -7.088    -0.104     (0)  
   MgCO3           6.105e-08   6.109e-08    -7.214    -7.214     0.000     (0)  
   MgHCO3+         4.560e-08   4.295e-08    -7.341    -7.367    -0.026     (0)  
   CO2             2.829e-08   2.831e-08    -7.548    -7.548     0.000     (0)  
   CaCO3           5.583e-10   5.587e-10    -9.253    -9.253     0.000     (0)  
   CaHCO3+         2.583e-10   2.433e-10    -9.588    -9.614    -0.026     (0)  
Ca            5.177e-06
   Ca+2            5.176e-06   4.072e-06    -5.286    -5.390    -0.104     (0)  
   CaCO3           5.583e-10   5.587e-10    -9.253    -9.253     0.000     (0)  
   CaOH+           2.669e-10   2.513e-10    -9.574    -9.600    -0.026     (0)  
   CaHCO3+         2.583e-10   2.433e-10    -9.588    -9.614    -0.026     (0)  
Cl            1.995e-03
   Cl-             1.995e-03   1.879e-03    -2.700    -2.726    -0.026     (0)  
H(0)          1.023e-28
   H2              5.115e-29   5.118e-29   -28.291   -28.291     0.000     (0)  
Mg            9.977e-04
   Mg+2            9.964e-04   7.839e-04    -3.002    -3.106    -0.104     (0)  
   MgOH+           1.124e-06   1.058e-06    -5.949    -5.975    -0.026     (0)  
   MgCO3           6.105e-08   6.109e-08    -7.214    -7.214     0.000     (0)  
   MgHCO3+         4.560e-08   4.295e-08    -7.341    -7.367    -0.026     (0)  
O(0)          3.180e-36
   O2              1.590e-36   1.591e-36   -35.799   -35.798     0.000     (0)  

------------------------------Saturation indices-------------------------------

	Phase               SI   log IAP   log K(298 K,   1 atm)

	Aragonite        -4.14    -12.48   -8.34  CaCO3
	Calcite          -4.00    -12.48   -8.48  CaCO3
	CO2(g)           -6.08     -7.55   -1.47  CO2
	Dolomite(dis)    -5.58    -22.67  -17.09  CaMg(CO3)2
	H2(g)           -25.10     17.90   43.00  H2
	O2(g)           -32.91    -35.80   -2.89  O2


------------------
End of simulation.
------------------

-------------------------------------
Reading input data for simulation 15.
-------------------------------------

	SOLUTION 15 #New Version 
	units mol/kgw 
	temp 25.000000 
	C(4)       7.576152377404e-06     # comp 
	Ca       7.512567053415e-06     # comp 
	Mg       9.967632144813e-04     # comp 
	Cl       1.993399258283e-03     # comp 
	pH       8.681312888779e+00 charge        # comp 
	pe       4.000000000000e+00       # comp 
	END
-------------------------------------------
Beginning of initial solution calculations.
-------------------------------------------

Initial solution 15.	

-----------------------------Solution composition------------------------------

	Elements           Molality       Moles

	C(4)              7.576e-06   7.576e-06
	Ca                7.513e-06   7.513e-06
	Cl                1.993e-03   1.993e-03
	Mg                9.968e-04   9.968e-04

----------------------------Description of solution----------------------------

                                       pH  =   8.726      Charge balance
                                       pe  =   4.000    
                        Activity of water  =   1.000
                           Ionic strength  =   3.009e-03
                       Mass of water (kg)  =   1.000e+00
                 Total alkalinity (eq/kg)  =   1.515e-05
                       Total CO2 (mol/kg)  =   7.576e-06
                      Temperature (deg C)  =  25.00
                  Electrical balance (eq)  =   3.393e-16
 Percent error, 100*(Cat-|An|)/(Cat+|An|)  =   0.00
                               Iterations  =   4
                                  Total H  = 1.110124e+02
                                  Total O  = 5.550625e+01

----------------------------Distribution of species----------------------------

                                               Log       Log       Log    mole V
   Species          Molality    Activity  Molality  Activity     Gamma   cm3/mol

   OH-             5.659e-06   5.330e-06    -5.247    -5.273    -0.026     (0)  
   H+              1.994e-09   1.878e-09    -8.700    -8.726    -0.026      0.00
   H2O             5.551e+01   9.999e-01     1.744    -0.000     0.000     18.07
C(4)          7.576e-06
   HCO3-           7.141e-06   6.725e-06    -5.146    -5.172    -0.026     (0)  
   CO3-2           2.135e-07   1.679e-07    -6.671    -6.775    -0.104     (0)  
   MgCO3           1.253e-07   1.254e-07    -6.902    -6.902     0.000     (0)  
   MgHCO3+         6.540e-08   6.159e-08    -7.184    -7.211    -0.026     (0)  
   CO2             2.838e-08   2.840e-08    -7.547    -7.547     0.000     (0)  
   CaCO3           1.665e-09   1.666e-09    -8.779    -8.778     0.000     (0)  
   CaHCO3+         5.382e-10   5.069e-10    -9.269    -9.295    -0.026     (0)  
Ca            7.513e-06
   Ca+2            7.510e-06   5.907e-06    -5.124    -5.229    -0.104     (0)  
   CaCO3           1.665e-09   1.666e-09    -8.779    -8.778     0.000     (0)  
   CaOH+           5.542e-10   5.219e-10    -9.256    -9.282    -0.026     (0)  
   CaHCO3+         5.382e-10   5.069e-10    -9.269    -9.295    -0.026     (0)  
Cl            1.993e-03
   Cl-             1.993e-03   1.877e-03    -2.700    -2.726    -0.026     (0)  
H(0)          4.992e-29
   H2              2.496e-29   2.498e-29   -28.603   -28.602     0.000     (0)  
Mg            9.968e-04
   Mg+2            9.950e-04   7.826e-04    -3.002    -3.106    -0.104     (0)  
   MgOH+           1.606e-06   1.513e-06    -5.794    -5.820    -0.026     (0)  
   MgCO3           1.253e-07   1.254e-07    -6.902    -6.902     0.000     (0)  
   MgHCO3+         6.540e-08   6.159e-08    -7.184    -7.211    -0.026     (0)  
O(0)          1.336e-35
   O2              6.678e-36   6.682e-36   -35.175   -35.175     0.000     (0)  

------------------------------Saturation indices-------------------------------

	Phase               SI   log IAP   log K(298 K,   1 atm)

	Aragonite        -3.67    -12.00   -8.34  CaCO3
	Calcite          -3.52    -12.00   -8.48  CaCO3
	CO2(g)           -6.08     -7.55   -1.47  CO2
	Dolomite(dis)    -4.79    -21.88  -17.09  CaMg(CO3)2
	H2(g)           -25.41     17.59   43.00  H2
	O2(g)           -32.28    -35.18   -2.89  O2


------------------
End of simulation.
------------------

-------------------------------------
Reading input data for simulation 16.
-------------------------------------

	SOLUTION 16 #New Version 
	units mol/kgw 
	temp 25.000000 
	C(4)       1.088194931245e-05     # comp 
	Ca       1.079335731849e-05     # comp 
	Mg       9.955433736004e-04     # comp 
	Cl       1.990909563178e-03     # comp 
	pH       8.832356175411e+00 charge        # comp 
	pe       4.000000000000e+00       # comp 
	END
-------------------------------------------
Beginning of initial solution calculations.
-------------------------------------------

Initial solution 16.	

-----------------------------Solution composition------------------------------

	Elements           Molality       Moles

	C(4)              1.088e-05   1.088e-05
	Ca                1.079e-05   1.079e-05
	Cl                1.991e-03   1.991e-03
	Mg                9.955e-04   9.955e-04

----------------------------Description of solution----------------------------

                                       pH  =   8.875      Charge balance
                                       pe  =   4.000    
                        Activity of water  =   1.000
                           Ionic strength  =   3.014e-03
                       Mass of water (kg)  =   1.000e+00
                 Total alkalinity (eq/kg)  =   2.176e-05
                       Total CO2 (mol/kg)  =   1.088e-05
                      Temperature (deg C)  =  25.00
                  Electrical balance (eq)  =   3.437e-16
 Percent error, 100*(Cat-|An|)/(Cat+|An|)  =   0.00
                               Iterations  =   4
                                  Total H  = 1.110125e+02
                                  Total O  = 5.550626e+01

----------------------------Distribution of species----------------------------

                                               Log       Log       Log    mole V
   Species          Molality    Activity  Molality  Activity     Gamma   cm3/mol

   OH-             7.974e-06   7.509e-06    -5.098    -5.124    -0.026     (0)  
   H+              1.416e-09   1.333e-09    -8.849    -8.875    -0.026      0.00
   H2O             5.551e+01   9.999e-01     1.744    -0.000     0.000     18.07
C(4)          1.088e-05
   HCO3-           1.008e-05   9.494e-06    -4.996    -5.023    -0.026     (0)  
   CO3-2           4.247e-07   3.340e-07    -6.372    -6.476    -0.104     (0)  
   MgCO3           2.487e-07   2.489e-07    -6.604    -6.604     0.000     (0)  
   MgHCO3+         9.212e-08   8.675e-08    -7.036    -7.062    -0.026     (0)  
   CO2             2.844e-08   2.846e-08    -7.546    -7.546     0.000     (0)  
   CaCO3           4.757e-09   4.760e-09    -8.323    -8.322     0.000     (0)  
   CaHCO3+         1.091e-09   1.028e-09    -8.962    -8.988    -0.026     (0)  
Ca            1.079e-05
   Ca+2            1.079e-05   8.483e-06    -4.967    -5.071    -0.104     (0)  
   CaCO3           4.757e-09   4.760e-09    -8.323    -8.322     0.000     (0)  
   CaOH+           1.121e-09   1.056e-09    -8.950    -8.976    -0.026     (0)  
   CaHCO3+         1.091e-09   1.028e-09    -8.962    -8.988    -0.026     (0)  
Cl            1.991e-03
   Cl-             1.991e-03   1.875e-03    -2.701    -2.727    -0.026     (0)  
H(0)          2.514e-29
   H2              1.257e-29   1.258e-29   -28.901   -28.900     0.000     (0)  
Mg            9.955e-04
   Mg+2            9.929e-04   7.809e-04    -3.003    -3.107    -0.104     (0)  
   MgOH+           2.258e-06   2.127e-06    -5.646    -5.672    -0.026     (0)  
   MgCO3           2.487e-07   2.489e-07    -6.604    -6.604     0.000     (0)  
   MgHCO3+         9.212e-08   8.675e-08    -7.036    -7.062    -0.026     (0)  
O(0)          5.264e-35
   O2              2.632e-35   2.634e-35   -34.580   -34.579     0.000     (0)  

------------------------------Saturation indices-------------------------------

	Phase               SI   log IAP   log K(298 K,   1 atm)

	Aragonite        -3.21    -11.55   -8.34  CaCO3
	Calcite          -3.07    -11.55   -8.48  CaCO3
	CO2(g)           -6.08     -7.55   -1.47  CO2
	Dolomite(dis)    -4.04    -21.13  -17.09  CaMg(CO3)2
	H2(g)           -25.71     17.29   43.00  H2
	O2(g)           -31.69    -34.58   -2.89  O2


------------------
End of simulation.
------------------

-------------------------------------
Reading input data for simulation 17.
-------------------------------------

	SOLUTION 17 #New Version 
	units mol/kgw 
	temp 25.000000 
	C(4)       1.550838366257e-05     # comp 
	Ca       1.540020108077e-05     # comp 
	Mg       9.939296501539e-04     # comp 
	Cl       1.987642935105e-03     # comp 
	pH       8.977119631452e+00 charge        # comp 
	pe       4.000000000000e+00       # comp 
	END
-------------------------------------------
Beginning of initial solution calculations.
-------------------------------------------

Initial solution 17.	

-----------------------------Solution composition------------------------------

	Elements           Molality       Moles

	C(4)              1.551e-05   1.551e-05
	Ca                1.540e-05   1.540e-05
	Cl                1.988e-03   1.988e-03
	Mg                9.939e-04   9.939e-04

----------------------------Description of solution----------------------------

                                       pH  =   9.018      Charge balance
                                       pe  =   4.000    
                        Activity of water  =   1.000
                           Ionic strength  =   3.021e-03
                       Mass of water (kg)  =   1.000e+00
                 Total alkalinity (eq/kg)  =   3.102e-05
                       Total CO2 (mol/kg)  =   1.551e-05
                      Temperature (deg C)  =  25.00
                  Electrical balance (eq)  =   3.509e-16
 Percent error, 100*(Cat-|An|)/(Cat+|An|)  =   0.00
                               Iterations  =   4
                                  Total H  = 1.110125e+02
                                  Total O  = 5.550628e+01

----------------------------Distribution of species----------------------------

                                               Log       Log       Log    mole V
   Species          Molality    Activity  Molality  Activity     Gamma   cm3/mol

   OH-             1.109e-05   1.044e-05    -4.955    -4.981    -0.026     (0)  
   H+              1.018e-09   9.586e-10    -8.992    -9.018    -0.026      0.00
   H2O             5.551e+01   9.999e-01     1.744    -0.000     0.000     18.07
C(4)          1.551e-05
   HCO3-           1.403e-05   1.322e-05    -4.853    -4.879    -0.026     (0)  
   CO3-2           8.223e-07   6.465e-07    -6.085    -6.189    -0.104     (0)  
   MgCO3           4.800e-07   4.803e-07    -6.319    -6.318     0.000     (0)  
   MgHCO3+         1.278e-07   1.204e-07    -6.893    -6.919    -0.026     (0)  
   CO2             2.847e-08   2.849e-08    -7.546    -7.545     0.000     (0)  
   CaCO3           1.313e-08   1.314e-08    -7.882    -7.882     0.000     (0)  
   CaHCO3+         2.166e-09   2.039e-09    -8.664    -8.691    -0.026     (0)  
Ca            1.540e-05
   Ca+2            1.538e-05   1.209e-05    -4.813    -4.917    -0.104     (0)  
   CaCO3           1.313e-08   1.314e-08    -7.882    -7.882     0.000     (0)  
   CaOH+           2.223e-09   2.094e-09    -8.653    -8.679    -0.026     (0)  
   CaHCO3+         2.166e-09   2.039e-09    -8.664    -8.691    -0.026     (0)  
Cl            1.988e-03
   Cl-             1.988e-03   1.872e-03    -2.702    -2.728    -0.026     (0)  
H(0)          1.300e-29
   H2              6.502e-30   6.506e-30   -29.187   -29.187     0.000     (0)  
Mg            9.939e-04
   Mg+2            9.902e-04   7.785e-04    -3.004    -3.109    -0.104     (0)  
   MgOH+           3.131e-06   2.948e-06    -5.504    -5.530    -0.026     (0)  
   MgCO3           4.800e-07   4.803e-07    -6.319    -6.318     0.000     (0)  
   MgHCO3+         1.278e-07   1.204e-07    -6.893    -6.919    -0.026     (0)  
O(0)          1.968e-34
   O2              9.840e-35   9.847e-35   -34.007   -34.007     0.000     (0)  

------------------------------Saturation indices-------------------------------

	Phase               SI   log IAP   log K(298 K,   1 atm)

	Aragonite        -2.77    -11.11   -8.34  CaCO3
	Calcite          -2.63    -11.11   -8.48  CaCO3
	CO2(g)           -6.08     -7.55   -1.47  CO2
	Dolomite(dis)    -3.31    -20.40  -17.09  CaMg(CO3)2
	H2(g)           -25.99     17.00   43.00  H2
	O2(g)           -31.11    -34.01   -2.89  O2


------------------
End of simulation.
------------------

-------------------------------------
Reading input data for simulation 18.
-------------------------------------

	SOLUTION 18 #New Version 
	units mol/kgw 
	temp 25.000000 
	C(4)       2.194715393441e-05     # comp 
	Ca       2.182629367959e-05     # comp 
	Mg       9.918259420573e-04     # comp 
	Cl       1.983410163562e-03     # comp 
	pH       9.116014208301e+00 charge        # comp 
	pe       4.000000000000e+00       # comp 
	END
-------------------------------------------
Beginning of initial solution calculations.
-------------------------------------------

Initial solution 18.	

-----------------------------Solution composition------------------------------

	Elements           Molality       Moles

	C(4)              2.195e-05   2.195e-05
	Ca                2.183e-05   2.183e-05
	Cl                1.983e-03   1.983e-03
	Mg                9.918e-04   9.918e-04

----------------------------Description of solution----------------------------

                                       pH  =   9.156      Charge balance
                                       pe  =   4.000    
                        Activity of water  =   1.000
                           Ionic strength  =   3.031e-03
                       Mass of water (kg)  =   1.000e+00
                 Total alkalinity (eq/kg)  =   4.389e-05
                       Total CO2 (mol/kg)  =   2.195e-05
                      Temperature (deg C)  =  25.00
                  Electrical balance (eq)  =   3.600e-16
 Percent error, 100*(Cat-|An|)/(Cat+|An|)  =   0.00
                               Iterations  =   4
                                  Total H  = 1.110125e+02
                                  Total O  = 5.550630e+01

----------------------------Distribution of species----------------------------

                                               Log       Log       Log    mole V
   Species          Molality    Activity  Molality  Activity     Gamma   cm3/mol

   OH-             1.521e-05   1.432e-05    -4.818    -4.844    -0.026     (0)  
   H+              7.423e-10   6.989e-10    -9.129    -9.156    -0.026      0.00
   H2O             5.551e+01   9.999e-01     1.744    -0.000     0.000     18.07
C(4)          2.195e-05
   HCO3-           1.926e-05   1.813e-05    -4.715    -4.742    -0.026     (0)  
   CO3-2           1.548e-06   1.217e-06    -5.810    -5.915    -0.105     (0)  
   MgCO3           8.995e-07   9.002e-07    -6.046    -6.046     0.000     (0)  
   MgHCO3+         1.747e-07   1.645e-07    -6.758    -6.784    -0.026     (0)  
   CaCO3           3.497e-08   3.499e-08    -7.456    -7.456     0.000     (0)  
   CO2             2.847e-08   2.849e-08    -7.546    -7.545     0.000     (0)  
   CaHCO3+         4.206e-09   3.961e-09    -8.376    -8.402    -0.026     (0)  
Ca            2.183e-05
   Ca+2            2.178e-05   1.712e-05    -4.662    -4.766    -0.105     (0)  
   CaCO3           3.497e-08   3.499e-08    -7.456    -7.456     0.000     (0)  
   CaOH+           4.317e-09   4.065e-09    -8.365    -8.391    -0.026     (0)  
   CaHCO3+         4.206e-09   3.961e-09    -8.376    -8.402    -0.026     (0)  
Cl            1.983e-03
   Cl-             1.983e-03   1.868e-03    -2.703    -2.729    -0.026     (0)  
H(0)          6.911e-30
   H2              3.456e-30   3.458e-30   -29.461   -29.461     0.000     (0)  
Mg            9.918e-04
   Mg+2            9.865e-04   7.753e-04    -3.006    -3.111    -0.105     (0)  
   MgOH+           4.278e-06   4.028e-06    -5.369    -5.395    -0.026     (0)  
   MgCO3           8.995e-07   9.002e-07    -6.046    -6.046     0.000     (0)  
   MgHCO3+         1.747e-07   1.645e-07    -6.758    -6.784    -0.026     (0)  
O(0)          6.967e-34
   O2              3.483e-34   3.486e-34   -33.458   -33.458     0.000     (0)  

------------------------------Saturation indices-------------------------------

	Phase               SI   log IAP   log K(298 K,   1 atm)

	Aragonite        -2.35    -10.68   -8.34  CaCO3
	Calcite          -2.20    -10.68   -8.48  CaCO3
	CO2(g)           -6.08     -7.55   -1.47  CO2
	Dolomite(dis)    -2.62    -19.71  -17.09  CaMg(CO3)2
	H2(g)           -26.27     16.73   43.00  H2
	O2(g)           -30.57    -33.46   -2.89  O2


------------------
End of simulation.
------------------

-------------------------------------
Reading input data for simulation 19.
-------------------------------------

	SOLUTION 19 #New Version 
	units mol/kgw 
	temp 25.000000 
	C(4)       3.078501127099e-05     # comp 
	Ca       3.066037118789e-05     # comp 
	Mg       9.891205680969e-04     # comp 
	Cl       1.977991855980e-03     # comp 
	pH       9.248239182661e+00 charge        # comp 
	pe       4.000000000000e+00       # comp 
	END
-------------------------------------------
Beginning of initial solution calculations.
-------------------------------------------

Initial solution 19.	

-----------------------------Solution composition------------------------------

	Elements           Molality       Moles

	C(4)              3.079e-05   3.079e-05
	Ca                3.066e-05   3.066e-05
	Cl                1.978e-03   1.978e-03
	Mg                9.891e-04   9.891e-04

----------------------------Description of solution----------------------------

                                       pH  =   9.286      Charge balance
                                       pe  =   4.000    
                        Activity of water  =   1.000
                           Ionic strength  =   3.045e-03
                       Mass of water (kg)  =   1.000e+00
                 Total alkalinity (eq/kg)  =   6.157e-05
                       Total CO2 (mol/kg)  =   3.079e-05
                      Temperature (deg C)  =  25.00
                  Electrical balance (eq)  =   3.749e-16
 Percent error, 100*(Cat-|An|)/(Cat+|An|)  =   0.00
                               Iterations  =   4
                                  Total H  = 1.110125e+02
                                  Total O  = 5.550634e+01

----------------------------Distribution of species----------------------------

                                               Log       Log       Log    mole V
   Species          Molality    Activity  Molality  Activity     Gamma   cm3/mol

   OH-             2.053e-05   1.933e-05    -4.688    -4.714    -0.026     (0)  
   H+              5.502e-10   5.180e-10    -9.260    -9.286    -0.026      0.00
   H2O             5.551e+01   9.999e-01     1.744    -0.000     0.000     18.07
C(4)          3.079e-05
   HCO3-           2.598e-05   2.446e-05    -4.585    -4.612    -0.026     (0)  
[...]
                                  Total O  = 5.550667e+01

----------------------------Distribution of species----------------------------

                                               Log       Log       Log    mole V
   Species          Molality    Activity  Molality  Activity     Gamma   cm3/mol

   OH-             8.284e-05   8.100e-05    -4.082    -4.091    -0.010     (0)  
   H+              1.264e-10   1.236e-10    -9.898    -9.908    -0.010      0.00
   H2O             5.551e+01   1.000e+00     1.744    -0.000     0.000     18.07
C(4)          1.221e-04
   HCO3-           8.283e-05   8.099e-05    -4.082    -4.092    -0.010     (0)  
   CO3-2           3.362e-05   3.074e-05    -4.473    -4.512    -0.039     (0)  
   CaCO3           5.491e-06   5.491e-06    -5.260    -5.260     0.000     (0)  
   CaHCO3+         1.124e-07   1.099e-07    -6.949    -6.959    -0.010     (0)  
   CO2             2.250e-08   2.250e-08    -7.648    -7.648     0.000     (0)  
   MgCO3           4.492e-13   4.492e-13   -12.348   -12.348     0.000     (0)  
   MgHCO3+         1.484e-14   1.451e-14   -13.828   -13.838    -0.010     (0)  
Ca            1.221e-04
   Ca+2            1.163e-04   1.064e-04    -3.934    -3.973    -0.039     (0)  
   CaCO3           5.491e-06   5.491e-06    -5.260    -5.260     0.000     (0)  
   CaOH+           1.461e-07   1.428e-07    -6.835    -6.845    -0.010     (0)  
   CaHCO3+         1.124e-07   1.099e-07    -6.949    -6.959    -0.010     (0)  
Cl            3.435e-11
   Cl-             3.435e-11   3.359e-11   -10.464   -10.474    -0.010     (0)  
H(0)          2.162e-31
   H2              1.081e-31   1.081e-31   -30.966   -30.966     0.000     (0)  
Mg            1.768e-11
   Mg+2            1.675e-11   1.532e-11   -10.776   -10.815    -0.039     (0)  
   MgOH+           4.602e-13   4.500e-13   -12.337   -12.347    -0.010     (0)  
   MgCO3           4.492e-13   4.492e-13   -12.348   -12.348     0.000     (0)  
   MgHCO3+         1.484e-14   1.451e-14   -13.828   -13.838    -0.010     (0)  
O(0)          7.131e-31
   O2              3.566e-31   3.566e-31   -30.448   -30.448     0.000     (0)  

------------------------------Saturation indices-------------------------------

	Phase               SI   log IAP   log K(298 K,   1 atm)

	Aragonite        -0.15     -8.49   -8.34  CaCO3
	Calcite          -0.01     -8.49   -8.48  CaCO3
	CO2(g)           -6.18     -7.65   -1.47  CO2
	Dolomite(dis)    -6.72    -23.81  -17.09  CaMg(CO3)2
	H2(g)           -27.77     15.22   43.00  H2
	O2(g)           -27.56    -30.45   -2.89  O2


------------------
End of simulation.
------------------

-------------------------------------
Reading input data for simulation 98.
-------------------------------------

	SOLUTION 98 #New Version 
	units mol/kgw 
	temp 25.000000 
	C(4)       1.220701932247e-04     # comp 
	Ca       1.220701932249e-04     # comp 
	Mg       1.033505562084e-11     # comp 
	Cl       1.967064714704e-11     # comp 
	pH       9.908041991809e+00 charge        # comp 
	pe       4.000000000000e+00       # comp 
	END
-------------------------------------------
Beginning of initial solution calculations.
-------------------------------------------

Initial solution 98.	

-----------------------------Solution composition------------------------------

	Elements           Molality       Moles

	C(4)              1.221e-04   1.221e-04
	Ca                1.221e-04   1.221e-04
	Cl                1.967e-11   1.967e-11
	Mg                1.034e-11   1.034e-11

----------------------------Description of solution----------------------------

                                       pH  =   9.908      Charge balance
                                       pe  =   4.000    
                        Activity of water  =   1.000
                           Ionic strength  =   3.828e-04
                       Mass of water (kg)  =   1.000e+00
                 Total alkalinity (eq/kg)  =   2.441e-04
                       Total CO2 (mol/kg)  =   1.221e-04
                      Temperature (deg C)  =  25.00
                  Electrical balance (eq)  =  -2.982e-19
 Percent error, 100*(Cat-|An|)/(Cat+|An|)  =  -0.00
                               Iterations  =   4
                                  Total H  = 1.110126e+02
                                  Total O  = 5.550667e+01

----------------------------Distribution of species----------------------------

                                               Log       Log       Log    mole V
   Species          Molality    Activity  Molality  Activity     Gamma   cm3/mol

   OH-             8.284e-05   8.100e-05    -4.082    -4.091    -0.010     (0)  
   H+              1.264e-10   1.236e-10    -9.898    -9.908    -0.010      0.00
   H2O             5.551e+01   1.000e+00     1.744    -0.000     0.000     18.07
C(4)          1.221e-04
   HCO3-           8.283e-05   8.099e-05    -4.082    -4.092    -0.010     (0)  
   CO3-2           3.362e-05   3.074e-05    -4.473    -4.512    -0.039     (0)  
   CaCO3           5.491e-06   5.491e-06    -5.260    -5.260     0.000     (0)  
   CaHCO3+         1.124e-07   1.099e-07    -6.949    -6.959    -0.010     (0)  
   CO2             2.250e-08   2.250e-08    -7.648    -7.648     0.000     (0)  
   MgCO3           2.626e-13   2.626e-13   -12.581   -12.581     0.000     (0)  
   MgHCO3+         8.679e-15   8.487e-15   -14.062   -14.071    -0.010     (0)  
Ca            1.221e-04
   Ca+2            1.163e-04   1.064e-04    -3.934    -3.973    -0.039     (0)  
   CaCO3           5.491e-06   5.491e-06    -5.260    -5.260     0.000     (0)  
   CaOH+           1.461e-07   1.428e-07    -6.835    -6.845    -0.010     (0)  
   CaHCO3+         1.124e-07   1.099e-07    -6.949    -6.959    -0.010     (0)  
Cl            1.967e-11
   Cl-             1.967e-11   1.923e-11   -10.706   -10.716    -0.010     (0)  
H(0)          2.162e-31
   H2              1.081e-31   1.081e-31   -30.966   -30.966     0.000     (0)  
Mg            1.034e-11
   Mg+2            9.795e-12   8.955e-12   -11.009   -11.048    -0.039     (0)  
   MgOH+           2.691e-13   2.631e-13   -12.570   -12.580    -0.010     (0)  
   MgCO3           2.626e-13   2.626e-13   -12.581   -12.581     0.000     (0)  
   MgHCO3+         8.679e-15   8.487e-15   -14.062   -14.071    -0.010     (0)  
O(0)          7.131e-31
   O2              3.566e-31   3.566e-31   -30.448   -30.448     0.000     (0)  

------------------------------Saturation indices-------------------------------

	Phase               SI   log IAP   log K(298 K,   1 atm)

	Aragonite        -0.15     -8.49   -8.34  CaCO3
	Calcite          -0.01     -8.49   -8.48  CaCO3
	CO2(g)           -6.18     -7.65   -1.47  CO2
	Dolomite(dis)    -6.96    -24.05  -17.09  CaMg(CO3)2
	H2(g)           -27.77     15.22   43.00  H2
	O2(g)           -27.56    -30.45   -2.89  O2


------------------
End of simulation.
------------------

-------------------------------------
Reading input data for simulation 99.
-------------------------------------

	SOLUTION 99 #New Version 
	units mol/kgw 
	temp 25.000000 
	C(4)       1.220701930296e-04     # comp 
	Ca       1.220701930297e-04     # comp 
	Mg       6.195994593318e-12     # comp 
	Cl       1.139226049821e-11     # comp 
	pH       9.908041992357e+00 charge        # comp 
	pe       4.000000000000e+00       # comp 
	END
-------------------------------------------
Beginning of initial solution calculations.
-------------------------------------------

Initial solution 99.	

-----------------------------Solution composition------------------------------

	Elements           Molality       Moles

	C(4)              1.221e-04   1.221e-04
	Ca                1.221e-04   1.221e-04
	Cl                1.139e-11   1.139e-11
	Mg                6.196e-12   6.196e-12

----------------------------Description of solution----------------------------

                                       pH  =   9.908      Charge balance
                                       pe  =   4.000    
                        Activity of water  =   1.000
                           Ionic strength  =   3.828e-04
                       Mass of water (kg)  =   1.000e+00
                 Total alkalinity (eq/kg)  =   2.441e-04
                       Total CO2 (mol/kg)  =   1.221e-04
                      Temperature (deg C)  =  25.00
                  Electrical balance (eq)  =   1.491e-19
 Percent error, 100*(Cat-|An|)/(Cat+|An|)  =   0.00
                               Iterations  =   4
                                  Total H  = 1.110126e+02
                                  Total O  = 5.550667e+01

----------------------------Distribution of species----------------------------

                                               Log       Log       Log    mole V
   Species          Molality    Activity  Molality  Activity     Gamma   cm3/mol

   OH-             8.284e-05   8.100e-05    -4.082    -4.091    -0.010     (0)  
   H+              1.264e-10   1.236e-10    -9.898    -9.908    -0.010      0.00
   H2O             5.551e+01   1.000e+00     1.744    -0.000     0.000     18.07
C(4)          1.221e-04
   HCO3-           8.283e-05   8.099e-05    -4.082    -4.092    -0.010     (0)  
   CO3-2           3.362e-05   3.074e-05    -4.473    -4.512    -0.039     (0)  
   CaCO3           5.491e-06   5.491e-06    -5.260    -5.260     0.000     (0)  
   CaHCO3+         1.124e-07   1.099e-07    -6.949    -6.959    -0.010     (0)  
   CO2             2.250e-08   2.250e-08    -7.648    -7.648     0.000     (0)  
   MgCO3           1.574e-13   1.575e-13   -12.803   -12.803     0.000     (0)  
   MgHCO3+         5.203e-15   5.088e-15   -14.284   -14.293    -0.010     (0)  
Ca            1.221e-04
   Ca+2            1.163e-04   1.064e-04    -3.934    -3.973    -0.039     (0)  
   CaCO3           5.491e-06   5.491e-06    -5.260    -5.260     0.000     (0)  
   CaOH+           1.461e-07   1.428e-07    -6.835    -6.845    -0.010     (0)  
   CaHCO3+         1.124e-07   1.099e-07    -6.949    -6.959    -0.010     (0)  
Cl            1.139e-11
   Cl-             1.139e-11   1.114e-11   -10.943   -10.953    -0.010     (0)  
H(0)          2.162e-31
   H2              1.081e-31   1.081e-31   -30.966   -30.966     0.000     (0)  
Mg            6.196e-12
   Mg+2            5.872e-12   5.369e-12   -11.231   -11.270    -0.039     (0)  
   MgOH+           1.613e-13   1.577e-13   -12.792   -12.802    -0.010     (0)  
   MgCO3           1.574e-13   1.575e-13   -12.803   -12.803     0.000     (0)  
   MgHCO3+         5.203e-15   5.088e-15   -14.284   -14.293    -0.010     (0)  
O(0)          7.131e-31
   O2              3.566e-31   3.566e-31   -30.448   -30.448     0.000     (0)  

------------------------------Saturation indices-------------------------------

	Phase               SI   log IAP   log K(298 K,   1 atm)

	Aragonite        -0.15     -8.49   -8.34  CaCO3
	Calcite          -0.01     -8.49   -8.48  CaCO3
	CO2(g)           -6.18     -7.65   -1.47  CO2
	Dolomite(dis)    -7.18    -24.27  -17.09  CaMg(CO3)2
	H2(g)           -27.77     15.22   43.00  H2
	O2(g)           -27.56    -30.45   -2.89  O2


------------------
End of simulation.
------------------

--------------------------------------
Reading input data for simulation 100.
--------------------------------------

	SOLUTION 100 #New Version 
	units mol/kgw 
	temp 25.000000 
	C(4)       1.220701929252e-04     # comp 
	Ca       1.220701929253e-04     # comp 
	Mg       3.981221011693e-12     # comp 
	Cl       6.962583402795e-12     # comp 
	pH       9.908041992651e+00 charge        # comp 
	pe       4.000000000000e+00       # comp 
	END
-------------------------------------------
Beginning of initial solution calculations.
-------------------------------------------

Initial solution 100.	

-----------------------------Solution composition------------------------------

	Elements           Molality       Moles

	C(4)              1.221e-04   1.221e-04
	Ca                1.221e-04   1.221e-04
	Cl                6.963e-12   6.963e-12
	Mg                3.981e-12   3.981e-12

----------------------------Description of solution----------------------------

                                       pH  =   9.908      Charge balance
                                       pe  =   4.000    
                        Activity of water  =   1.000
                           Ionic strength  =   3.828e-04
                       Mass of water (kg)  =   1.000e+00
                 Total alkalinity (eq/kg)  =   2.441e-04
                       Total CO2 (mol/kg)  =   1.221e-04
                      Temperature (deg C)  =  25.00
                  Electrical balance (eq)  =  -2.575e-19
 Percent error, 100*(Cat-|An|)/(Cat+|An|)  =  -0.00
                               Iterations  =   4
                                  Total H  = 1.110126e+02
                                  Total O  = 5.550667e+01

----------------------------Distribution of species----------------------------

                                               Log       Log       Log    mole V
   Species          Molality    Activity  Molality  Activity     Gamma   cm3/mol

   OH-             8.284e-05   8.100e-05    -4.082    -4.091    -0.010     (0)  
   H+              1.264e-10   1.236e-10    -9.898    -9.908    -0.010      0.00
   H2O             5.551e+01   1.000e+00     1.744    -0.000     0.000     18.07
C(4)          1.221e-04
   HCO3-           8.283e-05   8.099e-05    -4.082    -4.092    -0.010     (0)  
   CO3-2           3.362e-05   3.074e-05    -4.473    -4.512    -0.039     (0)  
   CaCO3           5.491e-06   5.491e-06    -5.260    -5.260     0.000     (0)  
   CaHCO3+         1.124e-07   1.099e-07    -6.949    -6.959    -0.010     (0)  
   CO2             2.250e-08   2.250e-08    -7.648    -7.648     0.000     (0)  
   MgCO3           1.012e-13   1.012e-13   -12.995   -12.995     0.000     (0)  
   MgHCO3+         3.343e-15   3.269e-15   -14.476   -14.486    -0.010     (0)  
Ca            1.221e-04
   Ca+2            1.163e-04   1.064e-04    -3.934    -3.973    -0.039     (0)  
   CaCO3           5.491e-06   5.491e-06    -5.260    -5.260     0.000     (0)  
   CaOH+           1.461e-07   1.428e-07    -6.835    -6.845    -0.010     (0)  
   CaHCO3+         1.124e-07   1.099e-07    -6.949    -6.959    -0.010     (0)  
Cl            6.963e-12
   Cl-             6.963e-12   6.808e-12   -11.157   -11.167    -0.010     (0)  
H(0)          2.162e-31
   H2              1.081e-31   1.081e-31   -30.966   -30.966     0.000     (0)  
Mg            3.981e-12
   Mg+2            3.773e-12   3.450e-12   -11.423   -11.462    -0.039     (0)  
   MgOH+           1.036e-13   1.013e-13   -12.984   -12.994    -0.010     (0)  
   MgCO3           1.012e-13   1.012e-13   -12.995   -12.995     0.000     (0)  
   MgHCO3+         3.343e-15   3.269e-15   -14.476   -14.486    -0.010     (0)  
O(0)          7.131e-31
   O2              3.566e-31   3.566e-31   -30.448   -30.448     0.000     (0)  

------------------------------Saturation indices-------------------------------

	Phase               SI   log IAP   log K(298 K,   1 atm)

	Aragonite        -0.15     -8.49   -8.34  CaCO3
	Calcite          -0.01     -8.49   -8.48  CaCO3
	CO2(g)           -6.18     -7.65   -1.47  CO2
	Dolomite(dis)    -7.37    -24.46  -17.09  CaMg(CO3)2
	H2(g)           -27.77     15.22   43.00  H2
	O2(g)           -27.56    -30.45   -2.89  O2


------------------
End of simulation.
------------------

--------------------------------------
Reading input data for simulation 101.
--------------------------------------

	SOLUTION 101 #New Version 
	units mol/kgw 
	temp 25.000000 
	C(4)       1.220701928905e-04     # comp 
	Ca       1.220701928906e-04     # comp 
	Mg       3.245445246401e-12     # comp 
	Cl       5.490990707610e-12     # comp 
	pH       9.908041992748e+00 charge        # comp 
	pe       4.000000000000e+00       # comp 
	END
-------------------------------------------
Beginning of initial solution calculations.
-------------------------------------------

Initial solution 101.	

-----------------------------Solution composition------------------------------

	Elements           Molality       Moles

	C(4)              1.221e-04   1.221e-04
	Ca                1.221e-04   1.221e-04
	Cl                5.491e-12   5.491e-12
	Mg                3.245e-12   3.245e-12

----------------------------Description of solution----------------------------

                                       pH  =   9.908      Charge balance
                                       pe  =   4.000    
                        Activity of water  =   1.000
                           Ionic strength  =   3.828e-04
                       Mass of water (kg)  =   1.000e+00
                 Total alkalinity (eq/kg)  =   2.441e-04
                       Total CO2 (mol/kg)  =   1.221e-04
                      Temperature (deg C)  =  25.00
                  Electrical balance (eq)  =   1.897e-19
 Percent error, 100*(Cat-|An|)/(Cat+|An|)  =   0.00
                               Iterations  =   4
                                  Total H  = 1.110126e+02
                                  Total O  = 5.550667e+01

----------------------------Distribution of species----------------------------

                                               Log       Log       Log    mole V
   Species          Molality    Activity  Molality  Activity     Gamma   cm3/mol

   OH-             8.284e-05   8.100e-05    -4.082    -4.091    -0.010     (0)  
   H+              1.264e-10   1.236e-10    -9.898    -9.908    -0.010      0.00
   H2O             5.551e+01   1.000e+00     1.744    -0.000     0.000     18.07
C(4)          1.221e-04
   HCO3-           8.283e-05   8.099e-05    -4.082    -4.092    -0.010     (0)  
   CO3-2           3.362e-05   3.074e-05    -4.473    -4.512    -0.039     (0)  
   CaCO3           5.491e-06   5.491e-06    -5.260    -5.260     0.000     (0)  
   CaHCO3+         1.124e-07   1.099e-07    -6.949    -6.959    -0.010     (0)  
   CO2             2.250e-08   2.250e-08    -7.648    -7.648     0.000     (0)  
   MgCO3           8.247e-14   8.248e-14   -13.084   -13.084     0.000     (0)  
   MgHCO3+         2.725e-15   2.665e-15   -14.565   -14.574    -0.010     (0)  
Ca            1.221e-04
   Ca+2            1.163e-04   1.064e-04    -3.934    -3.973    -0.039     (0)  
   CaCO3           5.491e-06   5.491e-06    -5.260    -5.260     0.000     (0)  
   CaOH+           1.461e-07   1.428e-07    -6.835    -6.845    -0.010     (0)  
   CaHCO3+         1.124e-07   1.099e-07    -6.949    -6.959    -0.010     (0)  
Cl            5.491e-12
   Cl-             5.491e-12   5.369e-12   -11.260   -11.270    -0.010     (0)  
H(0)          2.162e-31
   H2              1.081e-31   1.081e-31   -30.966   -30.966     0.000     (0)  
Mg            3.245e-12
   Mg+2            3.076e-12   2.812e-12   -11.512   -11.551    -0.039     (0)  
   MgOH+           8.449e-14   8.262e-14   -13.073   -13.083    -0.010     (0)  
   MgCO3           8.247e-14   8.248e-14   -13.084   -13.084     0.000     (0)  
   MgHCO3+         2.725e-15   2.665e-15   -14.565   -14.574    -0.010     (0)  
O(0)          7.131e-31
   O2              3.566e-31   3.566e-31   -30.448   -30.448     0.000     (0)  

------------------------------Saturation indices-------------------------------

	Phase               SI   log IAP   log K(298 K,   1 atm)

	Aragonite        -0.15     -8.49   -8.34  CaCO3
	Calcite          -0.01     -8.49   -8.48  CaCO3
	CO2(g)           -6.18     -7.65   -1.47  CO2
	Dolomite(dis)    -7.46    -24.55  -17.09  CaMg(CO3)2
	H2(g)           -27.77     15.22   43.00  H2
	O2(g)           -27.56    -30.45   -2.89  O2


------------------
End of simulation.
------------------

--------------------------------------
Reading input data for simulation 102.
--------------------------------------

------------------------------
End of Run after 0.09 Seconds.
------------------------------

