   Input file: phinp.dat
  Output file: phinp.out
Database file: phreeqc.dat

------------------
Reading data base.
------------------

	SOLUTION_MASTER_SPECIES
	SOLUTION_SPECIES
	PHASES
	EXCHANGE_MASTER_SPECIES
	EXCHANGE_SPECIES
	SURFACE_MASTER_SPECIES
	SURFACE_SPECIES
	RATES
------------------------------------
Reading input data for simulation 1.
------------------------------------

	SOLUTION 1 #New Version 
	units mol/kgw 
	temp 25.000000 
	C(4)       1.000000000000e-10     # comp 
	Ca       1.000000000000e-10     # comp 
	Mg       1.000000000000e-03     # comp 
	Cl       2.000000000000e-03     # comp 
	pH       6.932186011624e+00 charge        # comp 
	pe       -6.545938224747e+00       # comp 
	EQUILIBRIUM_PHASES   1
	Calcite 0.000000000000e+00  0.000000000000e+00       # comp 
	PRINT
	 reset true
	 selected_output true
	SELECTED_OUTPUT
	file phout_sel.dat
	high_precision
	reset false
	USER_PUNCH
	heading  C(4) Ca Mg Cl pH  H+  pe  Calcite CO3-2
	 10 PUNCH  TOT("C(4)"), TOT("Ca"), TOT("Mg"), TOT("Cl"),
	 20 PUNCH  -LA("H+"),  MOL("H+"),   -LA("e-")
	 40 PUNCH  EQUI("Calcite"),
	 90 PUNCH MOL("CO3-2")
	END
-------------------------------------------
Beginning of initial solution calculations.
-------------------------------------------

Initial solution 1.	

-----------------------------Solution composition------------------------------

	Elements           Molality       Moles

	C(4)              1.000e-10   1.000e-10
	Ca                1.000e-10   1.000e-10
	Cl                2.000e-03   2.000e-03
	Mg                1.000e-03   1.000e-03

----------------------------Description of solution----------------------------

                                       pH  =   6.944      Charge balance
                                       pe  =  -6.546    
                        Activity of water  =   1.000
                           Ionic strength  =   3.000e-03
                       Mass of water (kg)  =   1.000e+00
                 Total alkalinity (eq/kg)  =   2.000e-10
                       Total CO2 (mol/kg)  =   1.000e-10
                      Temperature (deg C)  =  25.00
                  Electrical balance (eq)  =   1.905e-16
 Percent error, 100*(Cat-|An|)/(Cat+|An|)  =   0.00
                               Iterations  =   4
                                  Total H  = 1.110127e+02
                                  Total O  = 5.550622e+01

----------------------------Distribution of species----------------------------

                                               Log       Log       Log    mole V
   Species          Molality    Activity  Molality  Activity     Gamma   cm3/mol

   H+              1.202e-07   1.137e-07    -6.920    -6.944    -0.024      0.00
   OH-             9.349e-08   8.800e-08    -7.029    -7.056    -0.026     (0)  
   H2O             5.551e+01   9.999e-01     1.744    -0.000     0.000     18.07
C(4)          1.000e-10
   HCO3-           7.993e-11   7.538e-11   -10.097   -10.123    -0.025     (0)  
   CO2             1.927e-11   1.928e-11   -10.715   -10.715     0.000     (0)  
   MgHCO3+         7.420e-13   6.988e-13   -12.130   -12.156    -0.026     (0)  
   CO3-2           3.929e-14   3.108e-14   -13.406   -13.508    -0.102     (0)  
   MgCO3           2.348e-14   2.350e-14   -13.629   -13.629     0.000     (0)  
   CaHCO3+         8.063e-20   7.604e-20   -19.094   -19.119    -0.025     (0)  
   CaCO3           4.125e-21   4.128e-21   -20.385   -20.384     0.000     (0)  
Ca            1.000e-10
   Ca+2            1.000e-10   7.906e-11   -10.000   -10.102    -0.102     (0)  
   CaOH+           1.225e-16   1.153e-16   -15.912   -15.938    -0.026     (0)  
   CaHCO3+         8.063e-20   7.604e-20   -19.094   -19.119    -0.025     (0)  
   CaCO3           4.125e-21   4.128e-21   -20.385   -20.384     0.000     (0)  
Cl            2.000e-03
   Cl-             2.000e-03   1.883e-03    -2.699    -2.725    -0.026     (0)  
H(0)          2.262e-04
   H2              1.131e-04   1.132e-04    -3.947    -3.946     0.000     (0)  
Mg            1.000e-03
   Mg+2            1.000e-03   7.923e-04    -3.000    -3.101    -0.101     (0)  
   MgOH+           2.685e-08   2.529e-08    -7.571    -7.597    -0.026     (0)  
   MgHCO3+         7.420e-13   6.988e-13   -12.130   -12.156    -0.026     (0)  
   MgCO3           2.348e-14   2.350e-14   -13.629   -13.629     0.000     (0)  
O(0)          0.000e+00
   O2              0.000e+00   0.000e+00   -84.488   -84.488     0.000     (0)  

------------------------------Saturation indices-------------------------------

	Phase               SI   log IAP   log K(298 K,   1 atm)

	Aragonite       -15.27    -23.61   -8.34  CaCO3
	Calcite         -15.13    -23.61   -8.48  CaCO3
	CO2(g)           -9.25    -10.71   -1.47  CO2
	Dolomite(dis)   -23.13    -40.22  -17.09  CaMg(CO3)2
	H2(g)            -0.75     42.24   43.00  H2
	O2(g)           -81.60    -84.49   -2.89  O2


-----------------------------------------
Beginning of batch-reaction calculations.
-----------------------------------------

Reaction step 1.

Using solution 1.	
Using pure phase assemblage 1.	

-------------------------------Phase assemblage--------------------------------

                                                      Moles in assemblage
Phase               SI  log IAP  log K(T, P)   Initial       Final       Delta

Calcite         -35.62   -44.10     -8.48    0.000e+00           0   0.000e+00

-----------------------------Solution composition------------------------------

	Elements           Molality       Moles

	C                 1.000e-10   1.000e-10
	Ca                1.000e-10   1.000e-10
	Cl                2.000e-03   2.000e-03
	Mg                1.000e-03   1.000e-03

----------------------------Description of solution----------------------------

                                       pH  =   6.944      Charge balance
                                       pe  =  -6.546      Adjusted to redox equilibrium
                        Activity of water  =   1.000
                           Ionic strength  =   3.000e-03
                       Mass of water (kg)  =   1.000e+00
                 Total alkalinity (eq/kg)  =   2.000e-10
                       Total CO2 (mol/kg)  =   3.235e-31
                      Temperature (deg C)  =  25.00
                  Electrical balance (eq)  =   1.903e-16
 Percent error, 100*(Cat-|An|)/(Cat+|An|)  =   0.00
                               Iterations  =   3
                                  Total H  = 1.110127e+02
                                  Total O  = 5.550622e+01

----------------------------Distribution of species----------------------------

                                               Log       Log       Log    mole V
   Species          Molality    Activity  Molality  Activity     Gamma   cm3/mol

   H+              1.202e-07   1.137e-07    -6.920    -6.944    -0.024      0.00
   OH-             9.352e-08   8.803e-08    -7.029    -7.055    -0.026     (0)  
   H2O             5.551e+01   9.999e-01     1.744    -0.000     0.000     18.07
C(-4)         1.000e-10
   CH4             1.000e-10   1.001e-10   -10.000   -10.000     0.000     (0)  
C(4)          3.235e-31
   HCO3-           2.586e-31   2.439e-31   -30.587   -30.613    -0.025     (0)  
   CO2             6.231e-32   6.236e-32   -31.205   -31.205     0.000     (0)  
   MgHCO3+         2.401e-33   2.261e-33   -32.620   -32.646    -0.026     (0)  
   CO3-2           1.272e-34   1.006e-34   -33.896   -33.997    -0.102     (0)  
   MgCO3           7.600e-35   7.605e-35   -34.119   -34.119     0.000     (0)  
   CaHCO3+         2.609e-40   2.460e-40   -39.584   -39.609    -0.025     (0)  
   CaCO3           0.000e+00   0.000e+00   -40.875   -40.874     0.000     (0)  
Ca            1.000e-10
   Ca+2            1.000e-10   7.906e-11   -10.000   -10.102    -0.102     (0)  
   CaOH+           1.225e-16   1.154e-16   -15.912   -15.938    -0.026     (0)  
   CaHCO3+         2.609e-40   2.460e-40   -39.584   -39.609    -0.025     (0)  
   CaCO3           0.000e+00   0.000e+00   -40.875   -40.874     0.000     (0)  
Cl            2.000e-03
   Cl-             2.000e-03   1.883e-03    -2.699    -2.725    -0.026     (0)  
H(0)          2.262e-04
   H2              1.131e-04   1.132e-04    -3.947    -3.946     0.000     (0)  
Mg            1.000e-03
   Mg+2            1.000e-03   7.923e-04    -3.000    -3.101    -0.101     (0)  
   MgOH+           2.686e-08   2.530e-08    -7.571    -7.597    -0.026     (0)  
   MgHCO3+         2.401e-33   2.261e-33   -32.620   -32.646    -0.026     (0)  
   MgCO3           7.600e-35   7.605e-35   -34.119   -34.119     0.000     (0)  
O(0)          0.000e+00
   O2              0.000e+00   0.000e+00   -84.488   -84.488     0.000     (0)  

------------------------------Saturation indices-------------------------------

	Phase               SI   log IAP   log K(298 K,   1 atm)

	Aragonite       -35.76    -44.10   -8.34  CaCO3
	Calcite         -35.62    -44.10   -8.48  CaCO3
	CH4(g)           -7.16    -10.00   -2.84  CH4
	CO2(g)          -29.74    -31.21   -1.47  CO2
	Dolomite(dis)   -64.11    -81.20  -17.09  CaMg(CO3)2
	H2(g)            -0.75     42.24   43.00  H2
	O2(g)           -81.60    -84.49   -2.89  O2


------------------
End of simulation.
------------------

------------------------------------
Reading input data for simulation 2.
------------------------------------

	SOLUTION 2 #New Version 
	units mol/kgw 
	temp 25.000000 
	C(4)       2.967345714704e-09     # comp 
	Ca       2.975913541958e-09     # comp 
	Mg       9.999960456487e-04     # comp 
	Cl       1.999991911208e-03     # comp 
	pH       6.935944935279e+00 charge        # comp 
	pe       -3.321286754956e+00       # comp 
	EQUILIBRIUM_PHASES   2
	Calcite 0.000000000000e+00  0.000000000000e+00       # comp 
	END
-------------------------------------------
Beginning of initial solution calculations.
-------------------------------------------

Initial solution 2.	

-----------------------------Solution composition------------------------------

	Elements           Molality       Moles

	C(4)              2.967e-09   2.967e-09
	Ca                2.976e-09   2.976e-09
	Cl                2.000e-03   2.000e-03
	Mg                1.000e-03   1.000e-03

----------------------------Description of solution----------------------------

                                       pH  =   6.951      Charge balance
                                       pe  =  -3.321    
                        Activity of water  =   1.000
                           Ionic strength  =   3.000e-03
                       Mass of water (kg)  =   1.000e+00
                 Total alkalinity (eq/kg)  =   6.132e-09
                       Total CO2 (mol/kg)  =   2.967e-09
                      Temperature (deg C)  =  25.00
                  Electrical balance (eq)  =   1.921e-16
 Percent error, 100*(Cat-|An|)/(Cat+|An|)  =   0.00
                               Iterations  =   4
                                  Total H  = 1.110124e+02
                                  Total O  = 5.550622e+01

----------------------------Distribution of species----------------------------

                                               Log       Log       Log    mole V
   Species          Molality    Activity  Molality  Activity     Gamma   cm3/mol

   H+              1.184e-07   1.121e-07    -6.927    -6.951    -0.024      0.00
   OH-             9.491e-08   8.933e-08    -7.023    -7.049    -0.026     (0)  
   H2O             5.551e+01   9.999e-01     1.744    -0.000     0.000     18.07
C(4)          2.967e-09
   HCO3-           2.379e-09   2.243e-09    -8.624    -8.649    -0.025     (0)  
   CO2             5.648e-10   5.652e-10    -9.248    -9.248     0.000     (0)  
   MgHCO3+         2.208e-11   2.080e-11   -10.656   -10.682    -0.026     (0)  
   CO3-2           1.187e-12   9.388e-13   -11.926   -12.027    -0.102     (0)  
   MgCO3           7.093e-13   7.098e-13   -12.149   -12.149     0.000     (0)  
   CaHCO3+         7.140e-17   6.734e-17   -16.146   -16.172    -0.025     (0)  
   CaCO3           3.708e-18   3.711e-18   -17.431   -17.431     0.000     (0)  
Ca            2.976e-09
   Ca+2            2.976e-09   2.353e-09    -8.526    -8.628    -0.102     (0)  
   CaOH+           3.700e-15   3.484e-15   -14.432   -14.458    -0.026     (0)  
   CaHCO3+         7.140e-17   6.734e-17   -16.146   -16.172    -0.025     (0)  
   CaCO3           3.708e-18   3.711e-18   -17.431   -17.431     0.000     (0)  
Cl            2.000e-03
   Cl-             2.000e-03   1.883e-03    -2.699    -2.725    -0.026     (0)  
H(0)          7.801e-11
   H2              3.901e-11   3.903e-11   -10.409   -10.409     0.000     (0)  
Mg            1.000e-03
   Mg+2            1.000e-03   7.923e-04    -3.000    -3.101    -0.101     (0)  
   MgOH+           2.726e-08   2.567e-08    -7.565    -7.591    -0.026     (0)  
   MgHCO3+         2.208e-11   2.080e-11   -10.656   -10.682    -0.026     (0)  
   MgCO3           7.093e-13   7.098e-13   -12.149   -12.149     0.000     (0)  
O(0)          0.000e+00
   O2              0.000e+00   0.000e+00   -71.563   -71.563     0.000     (0)  

------------------------------Saturation indices-------------------------------

	Phase               SI   log IAP   log K(298 K,   1 atm)

	Aragonite       -12.32    -20.66   -8.34  CaCO3
	Calcite         -12.18    -20.66   -8.48  CaCO3
	CO2(g)           -7.78     -9.25   -1.47  CO2
	Dolomite(dis)   -18.69    -35.78  -17.09  CaMg(CO3)2
	H2(g)            -7.22     35.78   43.00  H2
	O2(g)           -68.67    -71.56   -2.89  O2


-----------------------------------------
Beginning of batch-reaction calculations.
-----------------------------------------

Reaction step 1.

Using solution 2.	
Using pure phase assemblage 2.	

-------------------------------Phase assemblage--------------------------------

                                                      Moles in assemblage
Phase               SI  log IAP  log K(T, P)   Initial       Final       Delta

Calcite         -12.18   -20.66     -8.48    0.000e+00           0   0.000e+00

-----------------------------Solution composition------------------------------

	Elements           Molality       Moles

	C                 2.967e-09   2.967e-09
	Ca                2.976e-09   2.976e-09
	Cl                2.000e-03   2.000e-03
	Mg                1.000e-03   1.000e-03

----------------------------Description of solution----------------------------

                                       pH  =   6.951      Charge balance
                                       pe  =  -3.321      Adjusted to redox equilibrium
                        Activity of water  =   1.000
                           Ionic strength  =   3.000e-03
                       Mass of water (kg)  =   1.000e+00
                 Total alkalinity (eq/kg)  =   6.132e-09
                       Total CO2 (mol/kg)  =   2.967e-09
                      Temperature (deg C)  =  25.00
                  Electrical balance (eq)  =   2.015e-16
 Percent error, 100*(Cat-|An|)/(Cat+|An|)  =   0.00
                               Iterations  =   1
                                  Total H  = 1.110124e+02
                                  Total O  = 5.550622e+01

----------------------------Distribution of species----------------------------

                                               Log       Log       Log    mole V
   Species          Molality    Activity  Molality  Activity     Gamma   cm3/mol

   H+              1.184e-07   1.121e-07    -6.927    -6.951    -0.024      0.00
   OH-             9.491e-08   8.933e-08    -7.023    -7.049    -0.026     (0)  
   H2O             5.551e+01   9.999e-01     1.744    -0.000     0.000     18.07
C(-4)         1.275e-14
   CH4             1.275e-14   1.276e-14   -13.895   -13.894     0.000     (0)  
C(4)          2.967e-09
   HCO3-           2.379e-09   2.243e-09    -8.624    -8.649    -0.025     (0)  
   CO2             5.648e-10   5.652e-10    -9.248    -9.248     0.000     (0)  
   MgHCO3+         2.208e-11   2.080e-11   -10.656   -10.682    -0.026     (0)  
   CO3-2           1.187e-12   9.388e-13   -11.926   -12.027    -0.102     (0)  
   MgCO3           7.093e-13   7.098e-13   -12.149   -12.149     0.000     (0)  
   CaHCO3+         7.140e-17   6.734e-17   -16.146   -16.172    -0.025     (0)  
   CaCO3           3.708e-18   3.711e-18   -17.431   -17.431     0.000     (0)  
Ca            2.976e-09
   Ca+2            2.976e-09   2.353e-09    -8.526    -8.628    -0.102     (0)  
   CaOH+           3.700e-15   3.484e-15   -14.432   -14.458    -0.026     (0)  
   CaHCO3+         7.140e-17   6.734e-17   -16.146   -16.172    -0.025     (0)  
   CaCO3           3.708e-18   3.711e-18   -17.431   -17.431     0.000     (0)  
Cl            2.000e-03
   Cl-             2.000e-03   1.883e-03    -2.699    -2.725    -0.026     (0)  
H(0)          7.790e-11
   H2              3.895e-11   3.898e-11   -10.409   -10.409     0.000     (0)  
Mg            1.000e-03
   Mg+2            1.000e-03   7.923e-04    -3.000    -3.101    -0.101     (0)  
   MgOH+           2.726e-08   2.567e-08    -7.565    -7.591    -0.026     (0)  
   MgHCO3+         2.208e-11   2.080e-11   -10.656   -10.682    -0.026     (0)  
   MgCO3           7.093e-13   7.098e-13   -12.149   -12.149     0.000     (0)  
O(0)          0.000e+00
   O2              0.000e+00   0.000e+00   -71.562   -71.562     0.000     (0)  

------------------------------Saturation indices-------------------------------

	Phase               SI   log IAP   log K(298 K,   1 atm)

	Aragonite       -12.32    -20.66   -8.34  CaCO3
	Calcite         -12.18    -20.66   -8.48  CaCO3
	CH4(g)          -11.05    -13.89   -2.84  CH4
	CO2(g)           -7.78     -9.25   -1.47  CO2
	Dolomite(dis)   -18.69    -35.78  -17.09  CaMg(CO3)2
	H2(g)            -7.22     35.78   43.00  H2
	O2(g)           -68.67    -71.56   -2.89  O2


------------------
End of simulation.
------------------

------------------------------------
Reading input data for simulation 3.
------------------------------------

	SOLUTION 3 #New Version 
	units mol/kgw 
	temp 25.000000 
	C(4)       8.626629181398e-09     # comp 
	Ca       8.453146703746e-09     # comp 
	Mg       9.999886012691e-04     # comp 
	Cl       1.999976657470e-03     # comp 
	pH       6.947888544649e+00 charge        # comp 
	pe       -3.333421569575e+00       # comp 
	EQUILIBRIUM_PHASES   3
	Calcite 0.000000000000e+00  0.000000000000e+00       # comp 
	END
-------------------------------------------
Beginning of initial solution calculations.
-------------------------------------------

Initial solution 3.	

-----------------------------Solution composition------------------------------

	Elements           Molality       Moles

	C(4)              8.627e-09   8.627e-09
	Ca                8.453e-09   8.453e-09
	Cl                2.000e-03   2.000e-03
	Mg                1.000e-03   1.000e-03

----------------------------Description of solution----------------------------

                                       pH  =   6.963      Charge balance
                                       pe  =  -3.333    
                        Activity of water  =   1.000
                           Ionic strength  =   3.000e-03
                       Mass of water (kg)  =   1.000e+00
                 Total alkalinity (eq/kg)  =   1.745e-08
                       Total CO2 (mol/kg)  =   8.627e-09
                      Temperature (deg C)  =  25.00
                  Electrical balance (eq)  =   1.919e-16
 Percent error, 100*(Cat-|An|)/(Cat+|An|)  =   0.00
                               Iterations  =   4
                                  Total H  = 1.110124e+02
                                  Total O  = 5.550622e+01

----------------------------Distribution of species----------------------------

                                               Log       Log       Log    mole V
   Species          Molality    Activity  Molality  Activity     Gamma   cm3/mol

   H+              1.152e-07   1.090e-07    -6.939    -6.963    -0.024      0.00
   OH-             9.758e-08   9.185e-08    -7.011    -7.037    -0.026     (0)  
   H2O             5.551e+01   9.999e-01     1.744    -0.000     0.000     18.07
C(4)          8.627e-09
   HCO3-           6.951e-09   6.555e-09    -8.158    -8.183    -0.025     (0)  
   CO2             1.605e-09   1.606e-09    -8.794    -8.794     0.000     (0)  
   MgHCO3+         6.453e-11   6.077e-11   -10.190   -10.216    -0.026     (0)  
   CO3-2           3.566e-12   2.821e-12   -11.448   -11.550    -0.102     (0)  
   MgCO3           2.131e-12   2.133e-12   -11.671   -11.671     0.000     (0)  
   CaHCO3+         5.927e-16   5.590e-16   -15.227   -15.253    -0.025     (0)  
   CaCO3           3.165e-17   3.167e-17   -16.500   -16.499     0.000     (0)  
Ca            8.453e-09
   Ca+2            8.453e-09   6.683e-09    -8.073    -8.175    -0.102     (0)  
   CaOH+           1.081e-14   1.018e-14   -13.966   -13.992    -0.026     (0)  
   CaHCO3+         5.927e-16   5.590e-16   -15.227   -15.253    -0.025     (0)  
   CaCO3           3.165e-17   3.167e-17   -16.500   -16.499     0.000     (0)  
Cl            2.000e-03
   Cl-             2.000e-03   1.883e-03    -2.699    -2.725    -0.026     (0)  
H(0)          7.803e-11
   H2              3.902e-11   3.904e-11   -10.409   -10.408     0.000     (0)  
Mg            1.000e-03
   Mg+2            1.000e-03   7.923e-04    -3.000    -3.101    -0.101     (0)  
   MgOH+           2.803e-08   2.640e-08    -7.552    -7.578    -0.026     (0)  
   MgHCO3+         6.453e-11   6.077e-11   -10.190   -10.216    -0.026     (0)  
   MgCO3           2.131e-12   2.133e-12   -11.671   -11.671     0.000     (0)  
O(0)          0.000e+00
   O2              0.000e+00   0.000e+00   -71.563   -71.563     0.000     (0)  

------------------------------Saturation indices-------------------------------

	Phase               SI   log IAP   log K(298 K,   1 atm)

	Aragonite       -11.39    -19.72   -8.34  CaCO3
	Calcite         -11.24    -19.72   -8.48  CaCO3
	CO2(g)           -7.33     -8.79   -1.47  CO2
	Dolomite(dis)   -17.29    -34.38  -17.09  CaMg(CO3)2
	H2(g)            -7.22     35.78   43.00  H2
	O2(g)           -68.67    -71.56   -2.89  O2


-----------------------------------------
Beginning of batch-reaction calculations.
-----------------------------------------

Reaction step 1.

Using solution 3.	
Using pure phase assemblage 3.	

-------------------------------Phase assemblage--------------------------------

                                                      Moles in assemblage
Phase               SI  log IAP  log K(T, P)   Initial       Final       Delta

Calcite         -11.24   -19.72     -8.48    0.000e+00           0   0.000e+00

-----------------------------Solution composition------------------------------

	Elements           Molality       Moles

	C                 8.627e-09   8.627e-09
	Ca                8.453e-09   8.453e-09
	Cl                2.000e-03   2.000e-03
	Mg                1.000e-03   1.000e-03

----------------------------Description of solution----------------------------

                                       pH  =   6.963      Charge balance
                                       pe  =  -3.333      Adjusted to redox equilibrium
                        Activity of water  =   1.000
                           Ionic strength  =   3.000e-03
                       Mass of water (kg)  =   1.000e+00
                 Total alkalinity (eq/kg)  =   1.745e-08
                       Total CO2 (mol/kg)  =   8.627e-09
                      Temperature (deg C)  =  25.00
                  Electrical balance (eq)  =   2.015e-16
 Percent error, 100*(Cat-|An|)/(Cat+|An|)  =   0.00
                               Iterations  =   1
                                  Total H  = 1.110124e+02
                                  Total O  = 5.550622e+01

----------------------------Distribution of species----------------------------

                                               Log       Log       Log    mole V
   Species          Molality    Activity  Molality  Activity     Gamma   cm3/mol

   H+              1.152e-07   1.090e-07    -6.939    -6.963    -0.024      0.00
   OH-             9.758e-08   9.185e-08    -7.011    -7.037    -0.026     (0)  
   H2O             5.551e+01   9.999e-01     1.744    -0.000     0.000     18.07
C(-4)         3.593e-14
   CH4             3.593e-14   3.596e-14   -13.444   -13.444     0.000     (0)  
C(4)          8.627e-09
   HCO3-           6.951e-09   6.555e-09    -8.158    -8.183    -0.025     (0)  
   CO2             1.605e-09   1.606e-09    -8.794    -8.794     0.000     (0)  
   MgHCO3+         6.453e-11   6.077e-11   -10.190   -10.216    -0.026     (0)  
   CO3-2           3.566e-12   2.821e-12   -11.448   -11.550    -0.102     (0)  
   MgCO3           2.131e-12   2.133e-12   -11.671   -11.671     0.000     (0)  
   CaHCO3+         5.927e-16   5.590e-16   -15.227   -15.253    -0.025     (0)  
   CaCO3           3.165e-17   3.167e-17   -16.500   -16.499     0.000     (0)  
Ca            8.453e-09
   Ca+2            8.453e-09   6.683e-09    -8.073    -8.175    -0.102     (0)  
   CaOH+           1.081e-14   1.018e-14   -13.966   -13.992    -0.026     (0)  
   CaHCO3+         5.927e-16   5.590e-16   -15.227   -15.253    -0.025     (0)  
   CaCO3           3.165e-17   3.167e-17   -16.500   -16.499     0.000     (0)  
Cl            2.000e-03
   Cl-             2.000e-03   1.883e-03    -2.699    -2.725    -0.026     (0)  
H(0)          7.774e-11
   H2              3.887e-11   3.890e-11   -10.410   -10.410     0.000     (0)  
Mg            1.000e-03
   Mg+2            1.000e-03   7.923e-04    -3.000    -3.101    -0.101     (0)  
   MgOH+           2.803e-08   2.640e-08    -7.552    -7.578    -0.026     (0)  
   MgHCO3+         6.453e-11   6.077e-11   -10.190   -10.216    -0.026     (0)  
   MgCO3           2.131e-12   2.133e-12   -11.671   -11.671     0.000     (0)  
O(0)          0.000e+00
   O2              0.000e+00   0.000e+00   -71.560   -71.560     0.000     (0)  

------------------------------Saturation indices-------------------------------

	Phase               SI   log IAP   log K(298 K,   1 atm)

	Aragonite       -11.39    -19.72   -8.34  CaCO3
	Calcite         -11.24    -19.72   -8.48  CaCO3
	CH4(g)          -10.60    -13.44   -2.84  CH4
	CO2(g)           -7.33     -8.79   -1.47  CO2
	Dolomite(dis)   -17.29    -34.38  -17.09  CaMg(CO3)2
	H2(g)            -7.22     35.78   43.00  H2
	O2(g)           -68.67    -71.56   -2.89  O2


------------------
End of simulation.
------------------

------------------------------------
Reading input data for simulation 4.
------------------------------------

	SOLUTION 4 #New Version 
	units mol/kgw 
	temp 25.000000 
	C(4)       1.873320440060e-08     # comp 
	Ca       1.820263909127e-08     # comp 
	Mg       9.999755991877e-04     # comp 
	Cl       1.999949937713e-03     # comp 
	pH       6.968857406031e+00 charge        # comp 
	pe       1.113912844078e+01       # comp 
	EQUILIBRIUM_PHASES   4
	Calcite 0.000000000000e+00  0.000000000000e+00       # comp 
	END
-------------------------------------------
Beginning of initial solution calculations.
-------------------------------------------

Initial solution 4.	

-----------------------------Solution composition------------------------------

	Elements           Molality       Moles

	C(4)              1.873e-08   1.873e-08
	Ca                1.820e-08   1.820e-08
	Cl                2.000e-03   2.000e-03
	Mg                1.000e-03   1.000e-03

----------------------------Description of solution----------------------------

                                       pH  =   6.984      Charge balance
                                       pe  =  11.139    
                        Activity of water  =   1.000
                           Ionic strength  =   3.000e-03
                       Mass of water (kg)  =   1.000e+00
                 Total alkalinity (eq/kg)  =   3.767e-08
                       Total CO2 (mol/kg)  =   1.873e-08
                      Temperature (deg C)  =  25.00
                  Electrical balance (eq)  =   1.929e-16
 Percent error, 100*(Cat-|An|)/(Cat+|An|)  =   0.00
                               Iterations  =   4
                                  Total H  = 1.110124e+02
                                  Total O  = 5.550622e+01

----------------------------Distribution of species----------------------------

                                               Log       Log       Log    mole V
   Species          Molality    Activity  Molality  Activity     Gamma   cm3/mol

   H+              1.097e-07   1.038e-07    -6.960    -6.984    -0.024      0.00
   OH-             1.025e-07   9.648e-08    -6.989    -7.016    -0.026     (0)  
   H2O             5.551e+01   9.999e-01     1.744    -0.000     0.000     18.07
C(4)          1.873e-08
   HCO3-           1.523e-08   1.436e-08    -7.817    -7.843    -0.025     (0)  
   CO2             3.349e-09   3.351e-09    -8.475    -8.475     0.000     (0)  
   MgHCO3+         1.414e-10   1.332e-10    -9.850    -9.876    -0.026     (0)  
   CO3-2           8.208e-12   6.492e-12   -11.086   -11.188    -0.102     (0)  
   MgCO3           4.905e-12   4.908e-12   -11.309   -11.309     0.000     (0)  
   CaHCO3+         2.796e-15   2.637e-15   -14.553   -14.579    -0.025     (0)  
   CaCO3           1.568e-16   1.570e-16   -15.805   -15.804     0.000     (0)  
Ca            1.820e-08
   Ca+2            1.820e-08   1.439e-08    -7.740    -7.842    -0.102     (0)  
   CaOH+           2.444e-14   2.302e-14   -13.612   -13.638    -0.026     (0)  
   CaHCO3+         2.796e-15   2.637e-15   -14.553   -14.579    -0.025     (0)  
   CaCO3           1.568e-16   1.570e-16   -15.805   -15.804     0.000     (0)  
Cl            2.000e-03
   Cl-             2.000e-03   1.883e-03    -2.699    -2.725    -0.026     (0)  
H(0)          8.026e-40
   H2              4.013e-40   4.016e-40   -39.397   -39.396     0.000     (0)  
Mg            1.000e-03
   Mg+2            9.999e-04   7.923e-04    -3.000    -3.101    -0.101     (0)  
   MgOH+           2.944e-08   2.772e-08    -7.531    -7.557    -0.026     (0)  
   MgHCO3+         1.414e-10   1.332e-10    -9.850    -9.876    -0.026     (0)  
   MgCO3           4.905e-12   4.908e-12   -11.309   -11.309     0.000     (0)  
O(0)          5.166e-14
   O2              2.583e-14   2.585e-14   -13.588   -13.588     0.000     (0)  

------------------------------Saturation indices-------------------------------

	Phase               SI   log IAP   log K(298 K,   1 atm)

	Aragonite       -10.69    -19.03   -8.34  CaCO3
	Calcite         -10.55    -19.03   -8.48  CaCO3
	CO2(g)           -7.01     -8.47   -1.47  CO2
	Dolomite(dis)   -16.23    -33.32  -17.09  CaMg(CO3)2
	H2(g)           -36.20      6.79   43.00  H2
	O2(g)           -10.70    -13.59   -2.89  O2


-----------------------------------------
Beginning of batch-reaction calculations.
-----------------------------------------

Reaction step 1.

Using solution 4.	
Using pure phase assemblage 4.	

-------------------------------Phase assemblage--------------------------------

                                                      Moles in assemblage
Phase               SI  log IAP  log K(T, P)   Initial       Final       Delta

Calcite         -10.55   -19.03     -8.48    0.000e+00           0   0.000e+00

-----------------------------Solution composition------------------------------

	Elements           Molality       Moles

	C                 1.873e-08   1.873e-08
	Ca                1.820e-08   1.820e-08
	Cl                2.000e-03   2.000e-03
	Mg                1.000e-03   1.000e-03

----------------------------Description of solution----------------------------

                                       pH  =   6.984      Charge balance
                                       pe  =  11.132      Adjusted to redox equilibrium
                        Activity of water  =   1.000
                           Ionic strength  =   3.000e-03
                       Mass of water (kg)  =   1.000e+00
                 Total alkalinity (eq/kg)  =   3.767e-08
                       Total CO2 (mol/kg)  =   1.873e-08
                      Temperature (deg C)  =  25.00
                  Electrical balance (eq)  =   2.012e-16
 Percent error, 100*(Cat-|An|)/(Cat+|An|)  =   0.00
                               Iterations  =   1
                                  Total H  = 1.110124e+02
                                  Total O  = 5.550622e+01

----------------------------Distribution of species----------------------------

                                               Log       Log       Log    mole V
   Species          Molality    Activity  Molality  Activity     Gamma   cm3/mol

   H+              1.097e-07   1.038e-07    -6.960    -6.984    -0.024      0.00
   OH-             1.025e-07   9.648e-08    -6.989    -7.016    -0.026     (0)  
   H2O             5.551e+01   9.999e-01     1.744    -0.000     0.000     18.07
C(-4)         0.000e+00
   CH4             0.000e+00   0.000e+00  -129.012  -129.012     0.000     (0)  
C(4)          1.873e-08
   HCO3-           1.523e-08   1.436e-08    -7.817    -7.843    -0.025     (0)  
   CO2             3.349e-09   3.351e-09    -8.475    -8.475     0.000     (0)  
   MgHCO3+         1.414e-10   1.332e-10    -9.850    -9.876    -0.026     (0)  
   CO3-2           8.208e-12   6.492e-12   -11.086   -11.188    -0.102     (0)  
   MgCO3           4.905e-12   4.908e-12   -11.309   -11.309     0.000     (0)  
   CaHCO3+         2.796e-15   2.637e-15   -14.553   -14.579    -0.025     (0)  
   CaCO3           1.568e-16   1.570e-16   -15.805   -15.804     0.000     (0)  
Ca            1.820e-08
   Ca+2            1.820e-08   1.439e-08    -7.740    -7.842    -0.102     (0)  
   CaOH+           2.444e-14   2.302e-14   -13.612   -13.638    -0.026     (0)  
   CaHCO3+         2.796e-15   2.637e-15   -14.553   -14.579    -0.025     (0)  
   CaCO3           1.568e-16   1.570e-16   -15.805   -15.804     0.000     (0)  
Cl            2.000e-03
   Cl-             2.000e-03   1.883e-03    -2.699    -2.725    -0.026     (0)  
H(0)          8.295e-40
   H2              4.148e-40   4.151e-40   -39.382   -39.382     0.000     (0)  
Mg            1.000e-03
   Mg+2            9.999e-04   7.923e-04    -3.000    -3.101    -0.101     (0)  
   MgOH+           2.944e-08   2.772e-08    -7.531    -7.557    -0.026     (0)  
   MgHCO3+         1.414e-10   1.332e-10    -9.850    -9.876    -0.026     (0)  
   MgCO3           4.905e-12   4.908e-12   -11.309   -11.309     0.000     (0)  
O(0)          4.836e-14
   O2              2.418e-14   2.420e-14   -13.617   -13.616     0.000     (0)  

------------------------------Saturation indices-------------------------------

	Phase               SI   log IAP   log K(298 K,   1 atm)

	Aragonite       -10.69    -19.03   -8.34  CaCO3
	Calcite         -10.55    -19.03   -8.48  CaCO3
	CH4(g)         -126.17   -129.01   -2.84  CH4
	CO2(g)           -7.01     -8.47   -1.47  CO2
	Dolomite(dis)   -16.23    -33.32  -17.09  CaMg(CO3)2
	H2(g)           -36.19      6.81   43.00  H2
	O2(g)           -10.72    -13.62   -2.89  O2


------------------
End of simulation.
------------------

------------------------------------
Reading input data for simulation 5.
------------------------------------

	SOLUTION 5 #New Version 
	units mol/kgw 
	temp 25.000000 
	C(4)       3.601597434251e-08     # comp 
	Ca       3.479892997932e-08     # comp 
	Mg       9.999540307037e-04     # comp 
	Cl       1.999905425715e-03     # comp 
	pH       7.003546488556e+00 charge        # comp 
	pe       -3.394614563077e+00       # comp 
	EQUILIBRIUM_PHASES   5
	Calcite 0.000000000000e+00  0.000000000000e+00       # comp 
	END
-------------------------------------------
Beginning of initial solution calculations.
-------------------------------------------

Initial solution 5.	

-----------------------------Solution composition------------------------------

	Elements           Molality       Moles

	C(4)              3.602e-08   3.602e-08
	Ca                3.480e-08   3.480e-08
	Cl                2.000e-03   2.000e-03
	Mg                1.000e-03   1.000e-03

----------------------------Description of solution----------------------------

                                       pH  =   7.020      Charge balance
                                       pe  =  -3.395    
                        Activity of water  =   1.000
                           Ionic strength  =   3.000e-03
                       Mass of water (kg)  =   1.000e+00
                 Total alkalinity (eq/kg)  =   7.223e-08
                       Total CO2 (mol/kg)  =   3.602e-08
                      Temperature (deg C)  =  25.00
                  Electrical balance (eq)  =   1.880e-16
 Percent error, 100*(Cat-|An|)/(Cat+|An|)  =   0.00
                               Iterations  =   4
                                  Total H  = 1.110124e+02
                                  Total O  = 5.550622e+01

----------------------------Distribution of species----------------------------

                                               Log       Log       Log    mole V
   Species          Molality    Activity  Molality  Activity     Gamma   cm3/mol

   OH-             1.113e-07   1.047e-07    -6.954    -6.980    -0.026     (0)  
   H+              1.010e-07   9.558e-08    -6.996    -7.020    -0.024      0.00
   H2O             5.551e+01   9.999e-01     1.744    -0.000     0.000     18.07
C(4)          3.602e-08
   HCO3-           2.970e-08   2.801e-08    -7.527    -7.553    -0.025     (0)  
   CO2             6.015e-09   6.019e-09    -8.221    -8.220     0.000     (0)  
   MgHCO3+         2.757e-10   2.596e-10    -9.560    -9.586    -0.026     (0)  
   CO3-2           1.737e-11   1.374e-11   -10.760   -10.862    -0.102     (0)  
   MgCO3           1.038e-11   1.039e-11   -10.984   -10.983     0.000     (0)  
   CaHCO3+         1.042e-14   9.831e-15   -13.982   -14.007    -0.025     (0)  
   CaCO3           6.347e-16   6.352e-16   -15.197   -15.197     0.000     (0)  
Ca            3.480e-08
   Ca+2            3.480e-08   2.751e-08    -7.458    -7.560    -0.102     (0)  
   CaOH+           5.072e-14   4.777e-14   -13.295   -13.321    -0.026     (0)  
   CaHCO3+         1.042e-14   9.831e-15   -13.982   -14.007    -0.025     (0)  
   CaCO3           6.347e-16   6.352e-16   -15.197   -15.197     0.000     (0)  
Cl            2.000e-03
   Cl-             2.000e-03   1.883e-03    -2.699    -2.725    -0.026     (0)  
H(0)          7.956e-11
   H2              3.978e-11   3.981e-11   -10.400   -10.400     0.000     (0)  
Mg            1.000e-03
   Mg+2            9.999e-04   7.923e-04    -3.000    -3.101    -0.101     (0)  
   MgOH+           3.195e-08   3.010e-08    -7.495    -7.521    -0.026     (0)  
   MgHCO3+         2.757e-10   2.596e-10    -9.560    -9.586    -0.026     (0)  
   MgCO3           1.038e-11   1.039e-11   -10.984   -10.983     0.000     (0)  
O(0)          0.000e+00
   O2              0.000e+00   0.000e+00   -71.580   -71.580     0.000     (0)  

------------------------------Saturation indices-------------------------------

	Phase               SI   log IAP   log K(298 K,   1 atm)

	Aragonite       -10.09    -18.42   -8.34  CaCO3
	Calcite          -9.94    -18.42   -8.48  CaCO3
	CO2(g)           -6.75     -8.22   -1.47  CO2
	Dolomite(dis)   -15.30    -32.39  -17.09  CaMg(CO3)2
	H2(g)            -7.21     35.79   43.00  H2
	O2(g)           -68.69    -71.58   -2.89  O2


-----------------------------------------
Beginning of batch-reaction calculations.
-----------------------------------------

Reaction step 1.

Using solution 5.	
Using pure phase assemblage 5.	

-------------------------------Phase assemblage--------------------------------

                                                      Moles in assemblage
Phase               SI  log IAP  log K(T, P)   Initial       Final       Delta

Calcite          -9.94   -18.42     -8.48    0.000e+00           0   0.000e+00

-----------------------------Solution composition------------------------------

	Elements           Molality       Moles

	C                 3.602e-08   3.602e-08
	Ca                3.480e-08   3.480e-08
	Cl                2.000e-03   2.000e-03
	Mg                1.000e-03   1.000e-03

----------------------------Description of solution----------------------------

                                       pH  =   7.020      Charge balance
                                       pe  =  -3.392      Adjusted to redox equilibrium
                        Activity of water  =   1.000
                           Ionic strength  =   3.000e-03
                       Mass of water (kg)  =   1.000e+00
                 Total alkalinity (eq/kg)  =   7.223e-08
                       Total CO2 (mol/kg)  =   3.602e-08
                      Temperature (deg C)  =  25.00
                  Electrical balance (eq)  =   1.882e-16
 Percent error, 100*(Cat-|An|)/(Cat+|An|)  =   0.00
                               Iterations  =   2
                                  Total H  = 1.110124e+02
                                  Total O  = 5.550622e+01

----------------------------Distribution of species----------------------------

                                               Log       Log       Log    mole V
   Species          Molality    Activity  Molality  Activity     Gamma   cm3/mol

   OH-             1.113e-07   1.047e-07    -6.954    -6.980    -0.026     (0)  
   H+              1.010e-07   9.558e-08    -6.996    -7.020    -0.024      0.00
   H2O             5.551e+01   9.999e-01     1.744    -0.000     0.000     18.07
C(-4)         1.396e-13
   CH4             1.396e-13   1.397e-13   -12.855   -12.855     0.000     (0)  
C(4)          3.602e-08
   HCO3-           2.970e-08   2.801e-08    -7.527    -7.553    -0.025     (0)  
   CO2             6.015e-09   6.019e-09    -8.221    -8.220     0.000     (0)  
   MgHCO3+         2.757e-10   2.596e-10    -9.560    -9.586    -0.026     (0)  
   CO3-2           1.737e-11   1.374e-11   -10.760   -10.862    -0.102     (0)  
   MgCO3           1.038e-11   1.039e-11   -10.984   -10.983     0.000     (0)  
   CaHCO3+         1.042e-14   9.831e-15   -13.982   -14.007    -0.025     (0)  
   CaCO3           6.347e-16   6.352e-16   -15.197   -15.197     0.000     (0)  
Ca            3.480e-08
   Ca+2            3.480e-08   2.751e-08    -7.458    -7.560    -0.102     (0)  
   CaOH+           5.072e-14   4.777e-14   -13.295   -13.321    -0.026     (0)  
   CaHCO3+         1.042e-14   9.831e-15   -13.982   -14.007    -0.025     (0)  
   CaCO3           6.347e-16   6.352e-16   -15.197   -15.197     0.000     (0)  
Cl            2.000e-03
   Cl-             2.000e-03   1.883e-03    -2.699    -2.725    -0.026     (0)  
H(0)          7.845e-11
   H2              3.922e-11   3.925e-11   -10.406   -10.406     0.000     (0)  
Mg            1.000e-03
   Mg+2            9.999e-04   7.923e-04    -3.000    -3.101    -0.101     (0)  
   MgOH+           3.195e-08   3.010e-08    -7.495    -7.521    -0.026     (0)  
   MgHCO3+         2.757e-10   2.596e-10    -9.560    -9.586    -0.026     (0)  
   MgCO3           1.038e-11   1.039e-11   -10.984   -10.983     0.000     (0)  
O(0)          0.000e+00
   O2              0.000e+00   0.000e+00   -71.568   -71.568     0.000     (0)  

------------------------------Saturation indices-------------------------------

	Phase               SI   log IAP   log K(298 K,   1 atm)

	Aragonite       -10.09    -18.42   -8.34  CaCO3
	Calcite          -9.94    -18.42   -8.48  CaCO3
	CH4(g)          -10.01    -12.85   -2.84  CH4
	CO2(g)           -6.75     -8.22   -1.47  CO2
	Dolomite(dis)   -15.30    -32.39  -17.09  CaMg(CO3)2
	H2(g)            -7.21     35.78   43.00  H2
	O2(g)           -68.68    -71.57   -2.89  O2


------------------
End of simulation.
------------------

------------------------------------
Reading input data for simulation 6.
------------------------------------

	SOLUTION 6 #New Version 
	units mol/kgw 
	temp 25.000000 
	C(4)       6.466886810323e-08     # comp 
	Ca       6.215461131882e-08     # comp 
	Mg       9.999196230384e-04     # comp 
	Cl       1.999834012889e-03     # comp 
	pH       7.057795248831e+00 charge        # comp 
	pe       1.095659518601e+01       # comp 
	EQUILIBRIUM_PHASES   6
	Calcite 0.000000000000e+00  0.000000000000e+00       # comp 
	END
-------------------------------------------
Beginning of initial solution calculations.
-------------------------------------------

Initial solution 6.	

-----------------------------Solution composition------------------------------

	Elements           Molality       Moles

	C(4)              6.467e-08   6.467e-08
	Ca                6.215e-08   6.215e-08
	Cl                2.000e-03   2.000e-03
	Mg                9.999e-04   9.999e-04

----------------------------Description of solution----------------------------

                                       pH  =   7.076      Charge balance
                                       pe  =  10.957    
                        Activity of water  =   1.000
                           Ionic strength  =   3.000e-03
                       Mass of water (kg)  =   1.000e+00
                 Total alkalinity (eq/kg)  =   1.295e-07
                       Total CO2 (mol/kg)  =   6.467e-08
                      Temperature (deg C)  =  25.00
                  Electrical balance (eq)  =   1.922e-16
 Percent error, 100*(Cat-|An|)/(Cat+|An|)  =   0.00
                               Iterations  =   4
                                  Total H  = 1.110124e+02
                                  Total O  = 5.550622e+01

----------------------------Distribution of species----------------------------

                                               Log       Log       Log    mole V
   Species          Molality    Activity  Molality  Activity     Gamma   cm3/mol

   OH-             1.268e-07   1.193e-07    -6.897    -6.923    -0.026     (0)  
   H+              8.867e-08   8.390e-08    -7.052    -7.076    -0.024      0.00
   H2O             5.551e+01   9.999e-01     1.744    -0.000     0.000     18.07
C(4)          6.467e-08
   HCO3-           5.443e-08   5.133e-08    -7.264    -7.290    -0.025     (0)  
   CO2             9.676e-09   9.683e-09    -8.014    -8.014     0.000     (0)  
   MgHCO3+         5.052e-10   4.758e-10    -9.297    -9.323    -0.026     (0)  
   CO3-2           3.628e-11   2.869e-11   -10.440   -10.542    -0.102     (0)  
   MgCO3           2.168e-11   2.169e-11   -10.664   -10.664     0.000     (0)  
   CaHCO3+         3.413e-14   3.218e-14   -13.467   -13.492    -0.025     (0)  
   CaCO3           2.367e-15   2.369e-15   -14.626   -14.625     0.000     (0)  
Ca            6.215e-08
   Ca+2            6.215e-08   4.914e-08    -7.207    -7.309    -0.102     (0)  
   CaOH+           1.032e-13   9.720e-14   -12.986   -13.012    -0.026     (0)  
   CaHCO3+         3.413e-14   3.218e-14   -13.467   -13.492    -0.025     (0)  
   CaCO3           2.367e-15   2.369e-15   -14.626   -14.625     0.000     (0)  
Cl            2.000e-03
   Cl-             2.000e-03   1.883e-03    -2.699    -2.725    -0.026     (0)  
H(0)          1.216e-39
   H2              6.081e-40   6.085e-40   -39.216   -39.216     0.000     (0)  
Mg            9.999e-04
   Mg+2            9.999e-04   7.923e-04    -3.000    -3.101    -0.101     (0)  
   MgOH+           3.640e-08   3.429e-08    -7.439    -7.465    -0.026     (0)  
   MgHCO3+         5.052e-10   4.758e-10    -9.297    -9.323    -0.026     (0)  
   MgCO3           2.168e-11   2.169e-11   -10.664   -10.664     0.000     (0)  
O(0)          2.250e-14
   O2              1.125e-14   1.126e-14   -13.949   -13.949     0.000     (0)  

------------------------------Saturation indices-------------------------------

	Phase               SI   log IAP   log K(298 K,   1 atm)

	Aragonite        -9.51    -17.85   -8.34  CaCO3
	Calcite          -9.37    -17.85   -8.48  CaCO3
	CO2(g)           -6.55     -8.01   -1.47  CO2
	Dolomite(dis)   -14.40    -31.49  -17.09  CaMg(CO3)2
	H2(g)           -36.02      6.97   43.00  H2
	O2(g)           -11.06    -13.95   -2.89  O2


-----------------------------------------
Beginning of batch-reaction calculations.
-----------------------------------------

Reaction step 1.

Using solution 6.	
Using pure phase assemblage 6.	

-------------------------------Phase assemblage--------------------------------

                                                      Moles in assemblage
Phase               SI  log IAP  log K(T, P)   Initial       Final       Delta

Calcite          -9.37   -17.85     -8.48    0.000e+00           0   0.000e+00

-----------------------------Solution composition------------------------------

	Elements           Molality       Moles

	C                 6.467e-08   6.467e-08
	Ca                6.215e-08   6.215e-08
	Cl                2.000e-03   2.000e-03
	Mg                9.999e-04   9.999e-04

----------------------------Description of solution----------------------------

                                       pH  =   7.076      Charge balance
                                       pe  =  10.886      Adjusted to redox equilibrium
                        Activity of water  =   1.000
                           Ionic strength  =   3.000e-03
                       Mass of water (kg)  =   1.000e+00
                 Total alkalinity (eq/kg)  =   1.295e-07
                       Total CO2 (mol/kg)  =   6.467e-08
                      Temperature (deg C)  =  25.00
                  Electrical balance (eq)  =   2.006e-16
 Percent error, 100*(Cat-|An|)/(Cat+|An|)  =   0.00
                               Iterations  =   1
                                  Total H  = 1.110124e+02
                                  Total O  = 5.550622e+01

----------------------------Distribution of species----------------------------

                                               Log       Log       Log    mole V
   Species          Molality    Activity  Molality  Activity     Gamma   cm3/mol

   OH-             1.268e-07   1.193e-07    -6.897    -6.923    -0.026     (0)  
   H+              8.867e-08   8.390e-08    -7.052    -7.076    -0.024      0.00
   H2O             5.551e+01   9.999e-01     1.744    -0.000     0.000     18.07
C(-4)         0.000e+00
   CH4             0.000e+00   0.000e+00  -127.325  -127.324     0.000     (0)  
C(4)          6.467e-08
   HCO3-           5.443e-08   5.133e-08    -7.264    -7.290    -0.025     (0)  
   CO2             9.676e-09   9.683e-09    -8.014    -8.014     0.000     (0)  
   MgHCO3+         5.052e-10   4.758e-10    -9.297    -9.323    -0.026     (0)  
   CO3-2           3.628e-11   2.869e-11   -10.440   -10.542    -0.102     (0)  
   MgCO3           2.168e-11   2.169e-11   -10.664   -10.664     0.000     (0)  
   CaHCO3+         3.413e-14   3.218e-14   -13.467   -13.492    -0.025     (0)  
   CaCO3           2.367e-15   2.369e-15   -14.626   -14.625     0.000     (0)  
Ca            6.215e-08
   Ca+2            6.215e-08   4.914e-08    -7.207    -7.309    -0.102     (0)  
   CaOH+           1.032e-13   9.720e-14   -12.986   -13.012    -0.026     (0)  
   CaHCO3+         3.413e-14   3.218e-14   -13.467   -13.492    -0.025     (0)  
   CaCO3           2.367e-15   2.369e-15   -14.626   -14.625     0.000     (0)  
Cl            2.000e-03
   Cl-             2.000e-03   1.883e-03    -2.699    -2.725    -0.026     (0)  
H(0)          1.681e-39
   H2              8.405e-40   8.411e-40   -39.075   -39.075     0.000     (0)  
Mg            9.999e-04
   Mg+2            9.999e-04   7.923e-04    -3.000    -3.101    -0.101     (0)  
   MgOH+           3.640e-08   3.429e-08    -7.439    -7.465    -0.026     (0)  
   MgHCO3+         5.052e-10   4.758e-10    -9.297    -9.323    -0.026     (0)  
   MgCO3           2.168e-11   2.169e-11   -10.664   -10.664     0.000     (0)  
O(0)          1.177e-14
   O2              5.887e-15   5.892e-15   -14.230   -14.230     0.000     (0)  

------------------------------Saturation indices-------------------------------

	Phase               SI   log IAP   log K(298 K,   1 atm)

	Aragonite        -9.51    -17.85   -8.34  CaCO3
	Calcite          -9.37    -17.85   -8.48  CaCO3
	CH4(g)         -124.48   -127.32   -2.84  CH4
	CO2(g)           -6.55     -8.01   -1.47  CO2
	Dolomite(dis)   -14.40    -31.49  -17.09  CaMg(CO3)2
	H2(g)           -35.88      7.11   43.00  H2
	O2(g)           -11.34    -14.23   -2.89  O2


------------------
End of simulation.
------------------

------------------------------------
Reading input data for simulation 7.
------------------------------------

	SOLUTION 7 #New Version 
	units mol/kgw 
	temp 25.000000 
	C(4)       1.110685218903e-07     # comp 
	Ca       1.061453067825e-07     # comp 
	Mg       9.998664475486e-04     # comp 
	Cl       1.999722840042e-03     # comp 
	pH       7.137416467147e+00 charge        # comp 
	pe       -3.545853447191e+00       # comp 
	EQUILIBRIUM_PHASES   7
	Calcite 0.000000000000e+00  0.000000000000e+00       # comp 
	END
-------------------------------------------
Beginning of initial solution calculations.
-------------------------------------------

Initial solution 7.	

-----------------------------Solution composition------------------------------

	Elements           Molality       Moles

	C(4)              1.111e-07   1.111e-07
	Ca                1.061e-07   1.061e-07
	Cl                2.000e-03   2.000e-03
	Mg                9.999e-04   9.999e-04

----------------------------Description of solution----------------------------

                                       pH  =   7.161      Charge balance
                                       pe  =  -3.546    
                        Activity of water  =   1.000
                           Ionic strength  =   3.000e-03
                       Mass of water (kg)  =   1.000e+00
                 Total alkalinity (eq/kg)  =   2.223e-07
                       Total CO2 (mol/kg)  =   1.111e-07
                      Temperature (deg C)  =  25.00
                  Electrical balance (eq)  =   1.915e-16
 Percent error, 100*(Cat-|An|)/(Cat+|An|)  =   0.00
                               Iterations  =   4
                                  Total H  = 1.110124e+02
                                  Total O  = 5.550622e+01

----------------------------Distribution of species----------------------------

                                               Log       Log       Log    mole V
   Species          Molality    Activity  Molality  Activity     Gamma   cm3/mol

   OH-             1.540e-07   1.449e-07    -6.813    -6.839    -0.026     (0)  
   H+              7.300e-08   6.907e-08    -7.137    -7.161    -0.024      0.00
   H2O             5.551e+01   9.999e-01     1.744    -0.000     0.000     18.07
C(4)          1.111e-07
   HCO3-           9.600e-08   9.054e-08    -7.018    -7.043    -0.025     (0)  
   CO2             1.405e-08   1.406e-08    -7.852    -7.852     0.000     (0)  
   MgHCO3+         8.911e-10   8.392e-10    -9.050    -9.076    -0.026     (0)  
   CO3-2           7.772e-11   6.148e-11   -10.109   -10.211    -0.102     (0)  
   MgCO3           4.644e-11   4.647e-11   -10.333   -10.333     0.000     (0)  
   CaHCO3+         1.028e-13   9.694e-14   -12.988   -13.013    -0.025     (0)  
   CaCO3           8.661e-15   8.667e-15   -14.062   -14.062     0.000     (0)  
Ca            1.061e-07
   Ca+2            1.061e-07   8.392e-08    -6.974    -7.076    -0.102     (0)  
   CaOH+           2.141e-13   2.016e-13   -12.669   -12.695    -0.026     (0)  
   CaHCO3+         1.028e-13   9.694e-14   -12.988   -13.013    -0.025     (0)  
   CaCO3           8.661e-15   8.667e-15   -14.062   -14.062     0.000     (0)  
Cl            2.000e-03
   Cl-             2.000e-03   1.882e-03    -2.699    -2.725    -0.026     (0)  
H(0)          8.336e-11
   H2              4.168e-11   4.171e-11   -10.380   -10.380     0.000     (0)  
Mg            9.999e-04
   Mg+2            9.998e-04   7.922e-04    -3.000    -3.101    -0.101     (0)  
   MgOH+           4.422e-08   4.165e-08    -7.354    -7.380    -0.026     (0)  
   MgHCO3+         8.911e-10   8.392e-10    -9.050    -9.076    -0.026     (0)  
   MgCO3           4.644e-11   4.647e-11   -10.333   -10.333     0.000     (0)  
O(0)          0.000e+00
   O2              0.000e+00   0.000e+00   -71.621   -71.620     0.000     (0)  

------------------------------Saturation indices-------------------------------

	Phase               SI   log IAP   log K(298 K,   1 atm)

	Aragonite        -8.95    -17.29   -8.34  CaCO3
	Calcite          -8.81    -17.29   -8.48  CaCO3
	CO2(g)           -6.38     -7.85   -1.47  CO2
	Dolomite(dis)   -13.51    -30.60  -17.09  CaMg(CO3)2
	H2(g)            -7.19     35.81   43.00  H2
	O2(g)           -68.73    -71.62   -2.89  O2


-----------------------------------------
Beginning of batch-reaction calculations.
-----------------------------------------

Reaction step 1.

Using solution 7.	
Using pure phase assemblage 7.	

-------------------------------Phase assemblage--------------------------------

                                                      Moles in assemblage
Phase               SI  log IAP  log K(T, P)   Initial       Final       Delta

Calcite          -8.81   -17.29     -8.48    0.000e+00           0   0.000e+00

-----------------------------Solution composition------------------------------

	Elements           Molality       Moles

	C                 1.111e-07   1.111e-07
	Ca                1.061e-07   1.061e-07
	Cl                2.000e-03   2.000e-03
	Mg                9.999e-04   9.999e-04

----------------------------Description of solution----------------------------

                                       pH  =   7.161      Charge balance
                                       pe  =  -3.538      Adjusted to redox equilibrium
                        Activity of water  =   1.000
                           Ionic strength  =   3.000e-03
                       Mass of water (kg)  =   1.000e+00
                 Total alkalinity (eq/kg)  =   2.223e-07
                       Total CO2 (mol/kg)  =   1.111e-07
                      Temperature (deg C)  =  25.00
                  Electrical balance (eq)  =   1.895e-16
 Percent error, 100*(Cat-|An|)/(Cat+|An|)  =   0.00
                               Iterations  =   2
                                  Total H  = 1.110124e+02
                                  Total O  = 5.550622e+01

----------------------------Distribution of species----------------------------

                                               Log       Log       Log    mole V
   Species          Molality    Activity  Molality  Activity     Gamma   cm3/mol

   OH-             1.540e-07   1.449e-07    -6.813    -6.839    -0.026     (0)  
   H+              7.300e-08   6.906e-08    -7.137    -7.161    -0.024      0.00
   H2O             5.551e+01   9.999e-01     1.744    -0.000     0.000     18.07
C(-4)         3.607e-13
   CH4             3.607e-13   3.609e-13   -12.443   -12.443     0.000     (0)  
C(4)          1.111e-07
   HCO3-           9.600e-08   9.054e-08    -7.018    -7.043    -0.025     (0)  
   CO2             1.405e-08   1.406e-08    -7.852    -7.852     0.000     (0)  
   MgHCO3+         8.911e-10   8.392e-10    -9.050    -9.076    -0.026     (0)  
   CO3-2           7.772e-11   6.148e-11   -10.109   -10.211    -0.102     (0)  
   MgCO3           4.644e-11   4.647e-11   -10.333   -10.333     0.000     (0)  
   CaHCO3+         1.028e-13   9.694e-14   -12.988   -13.014    -0.025     (0)  
   CaCO3           8.661e-15   8.667e-15   -14.062   -14.062     0.000     (0)  
Ca            1.061e-07
   Ca+2            1.061e-07   8.392e-08    -6.974    -7.076    -0.102     (0)  
   CaOH+           2.141e-13   2.016e-13   -12.669   -12.695    -0.026     (0)  
   CaHCO3+         1.028e-13   9.694e-14   -12.988   -13.014    -0.025     (0)  
   CaCO3           8.661e-15   8.667e-15   -14.062   -14.062     0.000     (0)  
Cl            2.000e-03
   Cl-             2.000e-03   1.882e-03    -2.699    -2.725    -0.026     (0)  
H(0)          8.045e-11
   H2              4.022e-11   4.025e-11   -10.396   -10.395     0.000     (0)  
Mg            9.999e-04
   Mg+2            9.998e-04   7.922e-04    -3.000    -3.101    -0.101     (0)  
   MgOH+           4.422e-08   4.165e-08    -7.354    -7.380    -0.026     (0)  
   MgHCO3+         8.911e-10   8.392e-10    -9.050    -9.076    -0.026     (0)  
   MgCO3           4.644e-11   4.647e-11   -10.333   -10.333     0.000     (0)  
O(0)          0.000e+00
   O2              0.000e+00   0.000e+00   -71.590   -71.590     0.000     (0)  

------------------------------Saturation indices-------------------------------

	Phase               SI   log IAP   log K(298 K,   1 atm)

	Aragonite        -8.95    -17.29   -8.34  CaCO3
	Calcite          -8.81    -17.29   -8.48  CaCO3
	CH4(g)           -9.60    -12.44   -2.84  CH4
	CO2(g)           -6.38     -7.85   -1.47  CO2
	Dolomite(dis)   -13.51    -30.60  -17.09  CaMg(CO3)2
	H2(g)            -7.20     35.79   43.00  H2
	O2(g)           -68.70    -71.59   -2.89  O2


------------------
End of simulation.
------------------

------------------------------------
Reading input data for simulation 8.
------------------------------------

	SOLUTION 8 #New Version 
	units mol/kgw 
	temp 25.000000 
	C(4)       1.848475022550e-07     # comp 
	Ca       1.755183209501e-07     # comp 
	Mg       9.997864786759e-04     # comp 
	Cl       1.999554084935e-03     # comp 
	pH       7.246003914950e+00 charge        # comp 
	pe       1.098023752980e+01       # comp 
	EQUILIBRIUM_PHASES   8
	Calcite 0.000000000000e+00  0.000000000000e+00       # comp 
	END
-------------------------------------------
Beginning of initial solution calculations.
-------------------------------------------

Initial solution 8.	

-----------------------------Solution composition------------------------------

	Elements           Molality       Moles

	C(4)              1.848e-07   1.848e-07
	Ca                1.755e-07   1.755e-07
	Cl                2.000e-03   2.000e-03
	Mg                9.998e-04   9.998e-04

----------------------------Description of solution----------------------------

                                       pH  =   7.277      Charge balance
                                       pe  =  10.980    
                        Activity of water  =   1.000
                           Ionic strength  =   3.000e-03
                       Mass of water (kg)  =   1.000e+00
                 Total alkalinity (eq/kg)  =   3.699e-07
                       Total CO2 (mol/kg)  =   1.848e-07
                      Temperature (deg C)  =  25.00
                  Electrical balance (eq)  =   1.911e-16
 Percent error, 100*(Cat-|An|)/(Cat+|An|)  =   0.00
                               Iterations  =   4
                                  Total H  = 1.110124e+02
                                  Total O  = 5.550622e+01

----------------------------Distribution of species----------------------------

                                               Log       Log       Log    mole V
   Species          Molality    Activity  Molality  Activity     Gamma   cm3/mol

   OH-             2.013e-07   1.895e-07    -6.696    -6.723    -0.026     (0)  
   H+              5.585e-08   5.284e-08    -7.253    -7.277    -0.024      0.00
   H2O             5.551e+01   9.999e-01     1.744    -0.000     0.000     18.07
C(4)          1.848e-07
   HCO3-           1.646e-07   1.552e-07    -6.784    -6.809    -0.025     (0)  
   CO2             1.843e-08   1.844e-08    -7.734    -7.734     0.000     (0)  
   MgHCO3+         1.528e-09   1.439e-09    -8.816    -8.842    -0.026     (0)  
   CO3-2           1.742e-10   1.378e-10    -9.759    -9.861    -0.102     (0)  
   MgCO3           1.041e-10   1.041e-10    -9.983    -9.982     0.000     (0)  
   CaHCO3+         2.914e-13   2.748e-13   -12.535   -12.561    -0.025     (0)  
   CaCO3           3.210e-14   3.212e-14   -13.494   -13.493     0.000     (0)  
Ca            1.755e-07
   Ca+2            1.755e-07   1.388e-07    -6.756    -6.858    -0.102     (0)  
   CaOH+           4.628e-13   4.358e-13   -12.335   -12.361    -0.026     (0)  
   CaHCO3+         2.914e-13   2.748e-13   -12.535   -12.561    -0.025     (0)  
   CaCO3           3.210e-14   3.212e-14   -13.494   -13.493     0.000     (0)  
Cl            2.000e-03
   Cl-             2.000e-03   1.882e-03    -2.699    -2.725    -0.026     (0)  
H(0)          4.327e-40
   H2              2.163e-40   2.165e-40   -39.665   -39.665     0.000     (0)  
Mg            9.998e-04
   Mg+2            9.997e-04   7.921e-04    -3.000    -3.101    -0.101     (0)  
   MgOH+           5.779e-08   5.443e-08    -7.238    -7.264    -0.026     (0)  
   MgHCO3+         1.528e-09   1.439e-09    -8.816    -8.842    -0.026     (0)  
   MgCO3           1.041e-10   1.041e-10    -9.983    -9.982     0.000     (0)  
O(0)          1.778e-13
   O2              8.888e-14   8.894e-14   -13.051   -13.051     0.000     (0)  

------------------------------Saturation indices-------------------------------

	Phase               SI   log IAP   log K(298 K,   1 atm)

	Aragonite        -8.38    -16.72   -8.34  CaCO3
	Calcite          -8.24    -16.72   -8.48  CaCO3
	CO2(g)           -6.27     -7.73   -1.47  CO2
	Dolomite(dis)   -12.59    -29.68  -17.09  CaMg(CO3)2
	H2(g)           -36.47      6.53   43.00  H2
	O2(g)           -10.16    -13.05   -2.89  O2


-----------------------------------------
Beginning of batch-reaction calculations.
-----------------------------------------

Reaction step 1.

Using solution 8.	
Using pure phase assemblage 8.	

-------------------------------Phase assemblage--------------------------------

                                                      Moles in assemblage
Phase               SI  log IAP  log K(T, P)   Initial       Final       Delta

Calcite          -8.24   -16.72     -8.48    0.000e+00           0   0.000e+00

-----------------------------Solution composition------------------------------

	Elements           Molality       Moles

	C                 1.848e-07   1.848e-07
	Ca                1.755e-07   1.755e-07
	Cl                2.000e-03   2.000e-03
	Mg                9.998e-04   9.998e-04

----------------------------Description of solution----------------------------

                                       pH  =   7.277      Charge balance
                                       pe  =  10.979      Adjusted to redox equilibrium
                        Activity of water  =   1.000
                           Ionic strength  =   3.000e-03
                       Mass of water (kg)  =   1.000e+00
                 Total alkalinity (eq/kg)  =   3.699e-07
                       Total CO2 (mol/kg)  =   1.848e-07
                      Temperature (deg C)  =  25.00
                  Electrical balance (eq)  =   2.009e-16
 Percent error, 100*(Cat-|An|)/(Cat+|An|)  =   0.00
                               Iterations  =   1
                                  Total H  = 1.110124e+02
                                  Total O  = 5.550622e+01

----------------------------Distribution of species----------------------------

                                               Log       Log       Log    mole V
   Species          Molality    Activity  Molality  Activity     Gamma   cm3/mol

   OH-             2.013e-07   1.895e-07    -6.696    -6.723    -0.026     (0)  
   H+              5.585e-08   5.284e-08    -7.253    -7.277    -0.024      0.00
   H2O             5.551e+01   9.999e-01     1.744    -0.000     0.000     18.07
C(-4)         0.000e+00
   CH4             0.000e+00   0.000e+00  -129.391  -129.391     0.000     (0)  
C(4)          1.848e-07
   HCO3-           1.646e-07   1.552e-07    -6.784    -6.809    -0.025     (0)  
   CO2             1.843e-08   1.844e-08    -7.734    -7.734     0.000     (0)  
   MgHCO3+         1.528e-09   1.439e-09    -8.816    -8.842    -0.026     (0)  
   CO3-2           1.742e-10   1.378e-10    -9.759    -9.861    -0.102     (0)  
   MgCO3           1.041e-10   1.041e-10    -9.983    -9.982     0.000     (0)  
   CaHCO3+         2.914e-13   2.748e-13   -12.535   -12.561    -0.025     (0)  
   CaCO3           3.210e-14   3.212e-14   -13.494   -13.493     0.000     (0)  
Ca            1.755e-07
   Ca+2            1.755e-07   1.388e-07    -6.756    -6.858    -0.102     (0)  
   CaOH+           4.628e-13   4.358e-13   -12.335   -12.361    -0.026     (0)  
   CaHCO3+         2.914e-13   2.748e-13   -12.535   -12.561    -0.025     (0)  
   CaCO3           3.210e-14   3.212e-14   -13.494   -13.493     0.000     (0)  
Cl            2.000e-03
   Cl-             2.000e-03   1.882e-03    -2.699    -2.725    -0.026     (0)  
H(0)          4.355e-40
   H2              2.178e-40   2.179e-40   -39.662   -39.662     0.000     (0)  
Mg            9.998e-04
   Mg+2            9.997e-04   7.921e-04    -3.000    -3.101    -0.101     (0)  
   MgOH+           5.779e-08   5.443e-08    -7.238    -7.264    -0.026     (0)  
   MgHCO3+         1.528e-09   1.439e-09    -8.816    -8.842    -0.026     (0)  
   MgCO3           1.041e-10   1.041e-10    -9.983    -9.982     0.000     (0)  
O(0)          1.754e-13
   O2              8.771e-14   8.777e-14   -13.057   -13.057     0.000     (0)  

------------------------------Saturation indices-------------------------------

	Phase               SI   log IAP   log K(298 K,   1 atm)

	Aragonite        -8.38    -16.72   -8.34  CaCO3
	Calcite          -8.24    -16.72   -8.48  CaCO3
	CH4(g)         -126.55   -129.39   -2.84  CH4
	CO2(g)           -6.27     -7.73   -1.47  CO2
	Dolomite(dis)   -12.59    -29.68  -17.09  CaMg(CO3)2
	H2(g)           -36.47      6.53   43.00  H2
	O2(g)           -10.16    -13.06   -2.89  O2


------------------
End of simulation.
------------------

------------------------------------
Reading input data for simulation 9.
------------------------------------

	SOLUTION 9 #New Version 
	units mol/kgw 
	temp 25.000000 
	C(4)       3.006205611184e-07     # comp 
	Ca       2.832713051260e-07     # comp 
	Mg       9.996691979336e-04     # comp 
	Cl       1.999303476409e-03     # comp 
	pH       7.382751034109e+00 charge        # comp 
	pe       -3.816924171022e+00       # comp 
	EQUILIBRIUM_PHASES   9
	Calcite 0.000000000000e+00  0.000000000000e+00       # comp 
	END
-------------------------------------------
Beginning of initial solution calculations.
-------------------------------------------

Initial solution 9.	

-----------------------------Solution composition------------------------------

	Elements           Molality       Moles

	C(4)              3.006e-07   3.006e-07
	Ca                2.833e-07   2.833e-07
	Cl                1.999e-03   1.999e-03
	Mg                9.997e-04   9.997e-04

----------------------------Description of solution----------------------------

                                       pH  =   7.423      Charge balance
                                       pe  =  -3.817    
                        Activity of water  =   1.000
                           Ionic strength  =   3.000e-03
                       Mass of water (kg)  =   1.000e+00
                 Total alkalinity (eq/kg)  =   6.015e-07
                       Total CO2 (mol/kg)  =   3.006e-07
                      Temperature (deg C)  =  25.00
                  Electrical balance (eq)  =   1.937e-16
 Percent error, 100*(Cat-|An|)/(Cat+|An|)  =   0.00
                               Iterations  =   4
                                  Total H  = 1.110124e+02
                                  Total O  = 5.550622e+01

----------------------------Distribution of species----------------------------

                                               Log       Log       Log    mole V
   Species          Molality    Activity  Molality  Activity     Gamma   cm3/mol

   OH-             2.814e-07   2.649e-07    -6.551    -6.577    -0.026     (0)  
   H+              3.994e-08   3.779e-08    -7.399    -7.423    -0.024      0.00
   H2O             5.551e+01   9.999e-01     1.744    -0.000     0.000     18.07
C(4)          3.006e-07
   HCO3-           2.754e-07   2.597e-07    -6.560    -6.586    -0.025     (0)  
   CO2             2.205e-08   2.207e-08    -7.657    -7.656     0.000     (0)  
   MgHCO3+         2.555e-09   2.407e-09    -8.593    -8.619    -0.026     (0)  
   CO3-2           4.074e-10   3.222e-10    -9.390    -9.492    -0.102     (0)  
   MgCO3           2.434e-10   2.436e-10    -9.614    -9.613     0.000     (0)  
   CaHCO3+         7.868e-13   7.420e-13   -12.104   -12.130    -0.025     (0)  
   CaCO3           1.212e-13   1.212e-13   -12.917   -12.916     0.000     (0)  
Ca            2.833e-07
   Ca+2            2.833e-07   2.240e-07    -6.548    -6.650    -0.102     (0)  
   CaOH+           1.044e-12   9.835e-13   -11.981   -12.007    -0.026     (0)  
   CaHCO3+         7.868e-13   7.420e-13   -12.104   -12.130    -0.025     (0)  
   CaCO3           1.212e-13   1.212e-13   -12.917   -12.916     0.000     (0)  
Cl            1.999e-03
   Cl-             1.999e-03   1.882e-03    -2.699    -2.725    -0.026     (0)  
H(0)          8.697e-11
   H2              4.349e-11   4.352e-11   -10.362   -10.361     0.000     (0)  
Mg            9.997e-04
   Mg+2            9.996e-04   7.920e-04    -3.000    -3.101    -0.101     (0)  
   MgOH+           8.079e-08   7.609e-08    -7.093    -7.119    -0.026     (0)  
   MgHCO3+         2.555e-09   2.407e-09    -8.593    -8.619    -0.026     (0)  
   MgCO3           2.434e-10   2.436e-10    -9.614    -9.613     0.000     (0)  
O(0)          0.000e+00
   O2              0.000e+00   0.000e+00   -71.658   -71.657     0.000     (0)  

------------------------------Saturation indices-------------------------------

	Phase               SI   log IAP   log K(298 K,   1 atm)

	Aragonite        -7.81    -16.14   -8.34  CaCO3
	Calcite          -7.66    -16.14   -8.48  CaCO3
	CO2(g)           -6.19     -7.66   -1.47  CO2
	Dolomite(dis)   -11.64    -28.73  -17.09  CaMg(CO3)2
	H2(g)            -7.17     35.83   43.00  H2
	O2(g)           -68.77    -71.66   -2.89  O2


-----------------------------------------
Beginning of batch-reaction calculations.
-----------------------------------------

Reaction step 1.

Using solution 9.	
Using pure phase assemblage 9.	

-------------------------------Phase assemblage--------------------------------

                                                      Moles in assemblage
Phase               SI  log IAP  log K(T, P)   Initial       Final       Delta

Calcite          -7.66   -16.14     -8.48    0.000e+00           0   0.000e+00

-----------------------------Solution composition------------------------------

	Elements           Molality       Moles

	C                 3.006e-07   3.006e-07
	Ca                2.833e-07   2.833e-07
	Cl                1.999e-03   1.999e-03
	Mg                9.997e-04   9.997e-04

----------------------------Description of solution----------------------------

                                       pH  =   7.423      Charge balance
                                       pe  =  -3.804      Adjusted to redox equilibrium
                        Activity of water  =   1.000
                           Ionic strength  =   3.000e-03
                       Mass of water (kg)  =   1.000e+00
                 Total alkalinity (eq/kg)  =   6.015e-07
                       Total CO2 (mol/kg)  =   3.006e-07
                      Temperature (deg C)  =  25.00
                  Electrical balance (eq)  =   1.928e-16
 Percent error, 100*(Cat-|An|)/(Cat+|An|)  =   0.00
                               Iterations  =   2
                                  Total H  = 1.110124e+02
                                  Total O  = 5.550622e+01

----------------------------Distribution of species----------------------------

                                               Log       Log       Log    mole V
   Species          Molality    Activity  Molality  Activity     Gamma   cm3/mol

   OH-             2.814e-07   2.649e-07    -6.551    -6.577    -0.026     (0)  
   H+              3.994e-08   3.779e-08    -7.399    -7.423    -0.024      0.00
   H2O             5.551e+01   9.999e-01     1.744    -0.000     0.000     18.07
C(-4)         6.137e-13
   CH4             6.137e-13   6.141e-13   -12.212   -12.212     0.000     (0)  
C(4)          3.006e-07
   HCO3-           2.754e-07   2.597e-07    -6.560    -6.586    -0.025     (0)  
   CO2             2.205e-08   2.207e-08    -7.657    -7.656     0.000     (0)  
   MgHCO3+         2.555e-09   2.407e-09    -8.593    -8.619    -0.026     (0)  
   CO3-2           4.074e-10   3.222e-10    -9.390    -9.492    -0.102     (0)  
   MgCO3           2.434e-10   2.436e-10    -9.614    -9.613     0.000     (0)  
   CaHCO3+         7.868e-13   7.420e-13   -12.104   -12.130    -0.025     (0)  
   CaCO3           1.212e-13   1.212e-13   -12.917   -12.916     0.000     (0)  
Ca            2.833e-07
   Ca+2            2.833e-07   2.240e-07    -6.548    -6.650    -0.102     (0)  
   CaOH+           1.044e-12   9.835e-13   -11.981   -12.007    -0.026     (0)  
   CaHCO3+         7.868e-13   7.420e-13   -12.104   -12.130    -0.025     (0)  
   CaCO3           1.212e-13   1.212e-13   -12.917   -12.916     0.000     (0)  
Cl            1.999e-03
   Cl-             1.999e-03   1.882e-03    -2.699    -2.725    -0.026     (0)  
H(0)          8.209e-11
   H2              4.104e-11   4.107e-11   -10.387   -10.386     0.000     (0)  
Mg            9.997e-04
   Mg+2            9.996e-04   7.920e-04    -3.000    -3.101    -0.101     (0)  
   MgOH+           8.079e-08   7.609e-08    -7.093    -7.119    -0.026     (0)  
   MgHCO3+         2.555e-09   2.407e-09    -8.593    -8.619    -0.026     (0)  
   MgCO3           2.434e-10   2.436e-10    -9.614    -9.613     0.000     (0)  
O(0)          0.000e+00
   O2              0.000e+00   0.000e+00   -71.607   -71.607     0.000     (0)  

------------------------------Saturation indices-------------------------------

	Phase               SI   log IAP   log K(298 K,   1 atm)

	Aragonite        -7.81    -16.14   -8.34  CaCO3
	Calcite          -7.66    -16.14   -8.48  CaCO3
	CH4(g)           -9.37    -12.21   -2.84  CH4
	CO2(g)           -6.19     -7.66   -1.47  CO2
	Dolomite(dis)   -11.64    -28.73  -17.09  CaMg(CO3)2
	H2(g)            -7.19     35.80   43.00  H2
	O2(g)           -68.71    -71.61   -2.89  O2


------------------
End of simulation.
------------------

-------------------------------------
Reading input data for simulation 10.
-------------------------------------

	SOLUTION 10 #New Version 
	units mol/kgw 
	temp 25.000000 
	C(4)       4.810709650010e-07     # comp 
	Ca       4.489081011462e-07     # comp 
	Mg       9.995015343120e-04     # comp 
	Cl       1.998938513852e-03     # comp 
	pH       7.542182567501e+00 charge        # comp 
	pe       -3.984711073512e+00       # comp 
	EQUILIBRIUM_PHASES   10
	Calcite 0.000000000000e+00  0.000000000000e+00       # comp 
	END
-------------------------------------------
Beginning of initial solution calculations.
-------------------------------------------

Initial solution 10.	

-----------------------------Solution composition------------------------------

	Elements           Molality       Moles

	C(4)              4.811e-07   4.811e-07
	Ca                4.489e-07   4.489e-07
	Cl                1.999e-03   1.999e-03
	Mg                9.995e-04   9.995e-04

----------------------------Description of solution----------------------------

                                       pH  =   7.589      Charge balance
[...]
   H2O             5.551e+01   1.000e+00     1.744    -0.000     0.000     18.07
C(-4)         6.280e-26
   CH4             6.280e-26   6.280e-26   -25.202   -25.202     0.000     (0)  
C(4)          1.227e-04
   HCO3-           8.316e-05   8.133e-05    -4.080    -4.090    -0.010     (0)  
   CO3-2           3.386e-05   3.098e-05    -4.470    -4.509    -0.039     (0)  
   CaCO3           5.564e-06   5.565e-06    -5.255    -5.255     0.000     (0)  
   CaHCO3+         1.134e-07   1.109e-07    -6.945    -6.955    -0.010     (0)  
   CO2             2.251e-08   2.251e-08    -7.648    -7.648     0.000     (0)  
   MgCO3           1.587e-13   1.587e-13   -12.799   -12.799     0.000     (0)  
   MgHCO3+         5.226e-15   5.110e-15   -14.282   -14.292    -0.010     (0)  
Ca            1.227e-04
   Ca+2            1.169e-04   1.069e-04    -3.932    -3.971    -0.039     (0)  
   CaCO3           5.564e-06   5.565e-06    -5.255    -5.255     0.000     (0)  
   CaOH+           1.474e-07   1.441e-07    -6.831    -6.841    -0.010     (0)  
   CaHCO3+         1.134e-07   1.109e-07    -6.945    -6.955    -0.010     (0)  
Cl            1.139e-11
   Cl-             1.139e-11   1.114e-11   -10.943   -10.953    -0.010     (0)  
H(0)          4.622e-14
   H2              2.311e-14   2.311e-14   -13.636   -13.636     0.000     (0)  
Mg            6.195e-12
   Mg+2            5.869e-12   5.370e-12   -11.231   -11.270    -0.039     (0)  
   MgOH+           1.620e-13   1.584e-13   -12.791   -12.800    -0.010     (0)  
   MgCO3           1.587e-13   1.587e-13   -12.799   -12.799     0.000     (0)  
   MgHCO3+         5.226e-15   5.110e-15   -14.282   -14.292    -0.010     (0)  
O(0)          0.000e+00
   O2              0.000e+00   0.000e+00   -65.108   -65.108     0.000     (0)  

------------------------------Saturation indices-------------------------------

	Phase               SI   log IAP   log K(298 K,   1 atm)

	Aragonite        -0.14     -8.48   -8.34  CaCO3
	Calcite           0.00     -8.48   -8.48  CaCO3
	CH4(g)          -22.36    -25.20   -2.84  CH4
	CO2(g)           -6.18     -7.65   -1.47  CO2
	Dolomite(dis)    -7.17    -24.26  -17.09  CaMg(CO3)2
	H2(g)           -10.44     32.55   43.00  H2
	O2(g)           -62.22    -65.11   -2.89  O2


------------------
End of simulation.
------------------

--------------------------------------
Reading input data for simulation 100.
--------------------------------------

	SOLUTION 100 #New Version 
	units mol/kgw 
	temp 25.000000 
	C(4)       1.227217040079e-04     # comp 
	Ca       1.227217040086e-04     # comp 
	Mg       3.980393867280e-12     # comp 
	Cl       6.962588719007e-12     # comp 
	pH       9.909703055210e+00 charge        # comp 
	pe       -4.656600607268e+00       # comp 
	EQUILIBRIUM_PHASES   100
	Calcite 0.000000000000e+00  1.220004999997e-04       # comp 
	END
-------------------------------------------
Beginning of initial solution calculations.
-------------------------------------------

Initial solution 100.	

-----------------------------Solution composition------------------------------

	Elements           Molality       Moles

	C(4)              1.227e-04   1.227e-04
	Ca                1.227e-04   1.227e-04
	Cl                6.963e-12   6.963e-12
	Mg                3.980e-12   3.980e-12

----------------------------Description of solution----------------------------

                                       pH  =   9.910      Charge balance
                                       pe  =  -4.657    
                        Activity of water  =   1.000
                           Ionic strength  =   3.848e-04
                       Mass of water (kg)  =   1.000e+00
                 Total alkalinity (eq/kg)  =   2.454e-04
                       Total CO2 (mol/kg)  =   1.227e-04
                      Temperature (deg C)  =  25.00
                  Electrical balance (eq)  =  -5.421e-20
 Percent error, 100*(Cat-|An|)/(Cat+|An|)  =  -0.00
                               Iterations  =   4
                                  Total H  = 1.110126e+02
                                  Total O  = 5.550667e+01

----------------------------Distribution of species----------------------------

                                               Log       Log       Log    mole V
   Species          Molality    Activity  Molality  Activity     Gamma   cm3/mol

   OH-             8.317e-05   8.131e-05    -4.080    -4.090    -0.010     (0)  
   H+              1.258e-10   1.231e-10    -9.900    -9.910    -0.009      0.00
   H2O             5.551e+01   1.000e+00     1.744    -0.000     0.000     18.07
C(4)          1.227e-04
   HCO3-           8.316e-05   8.133e-05    -4.080    -4.090    -0.010     (0)  
   CO3-2           3.386e-05   3.098e-05    -4.470    -4.509    -0.039     (0)  
   CaCO3           5.564e-06   5.565e-06    -5.255    -5.255     0.000     (0)  
   CaHCO3+         1.134e-07   1.109e-07    -6.945    -6.955    -0.010     (0)  
   CO2             2.251e-08   2.251e-08    -7.648    -7.648     0.000     (0)  
   MgCO3           1.020e-13   1.020e-13   -12.991   -12.991     0.000     (0)  
   MgHCO3+         3.358e-15   3.283e-15   -14.474   -14.484    -0.010     (0)  
Ca            1.227e-04
   Ca+2            1.169e-04   1.069e-04    -3.932    -3.971    -0.039     (0)  
   CaCO3           5.564e-06   5.565e-06    -5.255    -5.255     0.000     (0)  
   CaOH+           1.474e-07   1.441e-07    -6.831    -6.841    -0.010     (0)  
   CaHCO3+         1.134e-07   1.109e-07    -6.945    -6.955    -0.010     (0)  
Cl            6.963e-12
   Cl-             6.963e-12   6.808e-12   -11.157   -11.167    -0.010     (0)  
H(0)          4.414e-14
   H2              2.207e-14   2.207e-14   -13.656   -13.656     0.000     (0)  
Mg            3.980e-12
   Mg+2            3.771e-12   3.450e-12   -11.424   -11.462    -0.039     (0)  
   MgOH+           1.041e-13   1.018e-13   -12.983   -12.992    -0.010     (0)  
   MgCO3           1.020e-13   1.020e-13   -12.991   -12.991     0.000     (0)  
   MgHCO3+         3.358e-15   3.283e-15   -14.474   -14.484    -0.010     (0)  
O(0)          0.000e+00
   O2              0.000e+00   0.000e+00   -65.068   -65.068     0.000     (0)  

------------------------------Saturation indices-------------------------------

	Phase               SI   log IAP   log K(298 K,   1 atm)

	Aragonite        -0.14     -8.48   -8.34  CaCO3
	Calcite          -0.00     -8.48   -8.48  CaCO3
	CO2(g)           -6.18     -7.65   -1.47  CO2
	Dolomite(dis)    -7.36    -24.45  -17.09  CaMg(CO3)2
	H2(g)           -10.46     32.53   43.00  H2
	O2(g)           -62.18    -65.07   -2.89  O2


-----------------------------------------
Beginning of batch-reaction calculations.
-----------------------------------------

Reaction step 1.

Using solution 100.	
Using pure phase assemblage 100.	

-------------------------------Phase assemblage--------------------------------

                                                      Moles in assemblage
Phase               SI  log IAP  log K(T, P)   Initial       Final       Delta

Calcite           0.00    -8.48     -8.48    1.220e-04   1.220e-04  -5.241e-17

-----------------------------Solution composition------------------------------

	Elements           Molality       Moles

	C                 1.227e-04   1.227e-04
	Ca                1.227e-04   1.227e-04
	Cl                6.963e-12   6.963e-12
	Mg                3.980e-12   3.980e-12

----------------------------Description of solution----------------------------

                                       pH  =   9.910      Charge balance
                                       pe  =  -4.622      Adjusted to redox equilibrium
                        Activity of water  =   1.000
                           Ionic strength  =   3.848e-04
                       Mass of water (kg)  =   1.000e+00
                 Total alkalinity (eq/kg)  =   2.454e-04
                       Total CO2 (mol/kg)  =   1.227e-04
                      Temperature (deg C)  =  25.00
                  Electrical balance (eq)  =   5.421e-20
 Percent error, 100*(Cat-|An|)/(Cat+|An|)  =   0.00
                               Iterations  =   1
                                  Total H  = 1.110126e+02
                                  Total O  = 5.550667e+01

----------------------------Distribution of species----------------------------

                                               Log       Log       Log    mole V
   Species          Molality    Activity  Molality  Activity     Gamma   cm3/mol

   OH-             8.317e-05   8.131e-05    -4.080    -4.090    -0.010     (0)  
   H+              1.258e-10   1.231e-10    -9.900    -9.910    -0.009      0.00
   H2O             5.551e+01   1.000e+00     1.744    -0.000     0.000     18.07
C(-4)         2.772e-26
   CH4             2.772e-26   2.772e-26   -25.557   -25.557     0.000     (0)  
C(4)          1.227e-04
   HCO3-           8.316e-05   8.133e-05    -4.080    -4.090    -0.010     (0)  
   CO3-2           3.386e-05   3.098e-05    -4.470    -4.509    -0.039     (0)  
   CaCO3           5.564e-06   5.565e-06    -5.255    -5.255     0.000     (0)  
   CaHCO3+         1.134e-07   1.109e-07    -6.945    -6.955    -0.010     (0)  
   CO2             2.251e-08   2.251e-08    -7.648    -7.648     0.000     (0)  
   MgCO3           1.020e-13   1.020e-13   -12.991   -12.991     0.000     (0)  
   MgHCO3+         3.358e-15   3.283e-15   -14.474   -14.484    -0.010     (0)  
Ca            1.227e-04
   Ca+2            1.169e-04   1.069e-04    -3.932    -3.971    -0.039     (0)  
   CaCO3           5.564e-06   5.565e-06    -5.255    -5.255     0.000     (0)  
   CaOH+           1.474e-07   1.441e-07    -6.831    -6.841    -0.010     (0)  
   CaHCO3+         1.134e-07   1.109e-07    -6.945    -6.955    -0.010     (0)  
Cl            6.963e-12
   Cl-             6.963e-12   6.808e-12   -11.157   -11.167    -0.010     (0)  
H(0)          3.767e-14
   H2              1.884e-14   1.884e-14   -13.725   -13.725     0.000     (0)  
Mg            3.980e-12
   Mg+2            3.771e-12   3.450e-12   -11.424   -11.462    -0.039     (0)  
   MgOH+           1.041e-13   1.018e-13   -12.983   -12.992    -0.010     (0)  
   MgCO3           1.020e-13   1.020e-13   -12.991   -12.991     0.000     (0)  
   MgHCO3+         3.358e-15   3.283e-15   -14.474   -14.484    -0.010     (0)  
O(0)          0.000e+00
   O2              0.000e+00   0.000e+00   -64.930   -64.930     0.000     (0)  

------------------------------Saturation indices-------------------------------

	Phase               SI   log IAP   log K(298 K,   1 atm)

	Aragonite        -0.14     -8.48   -8.34  CaCO3
	Calcite           0.00     -8.48   -8.48  CaCO3
	CH4(g)          -22.71    -25.56   -2.84  CH4
	CO2(g)           -6.18     -7.65   -1.47  CO2
	Dolomite(dis)    -7.36    -24.45  -17.09  CaMg(CO3)2
	H2(g)           -10.53     32.47   43.00  H2
	O2(g)           -62.04    -64.93   -2.89  O2


------------------
End of simulation.
------------------

--------------------------------------
Reading input data for simulation 101.
--------------------------------------

	SOLUTION 101 #New Version 
	units mol/kgw 
	temp 25.000000 
	C(4)       1.227217039707e-04     # comp 
	Ca       1.227217039712e-04     # comp 
	Mg       3.244833955451e-12     # comp 
	Cl       5.490994706349e-12     # comp 
	pH       9.909703055300e+00 charge        # comp 
	pe       -4.932499784495e+00       # comp 
	EQUILIBRIUM_PHASES   101
	Calcite 0.000000000000e+00  1.220004999997e-04       # comp 
	END
-------------------------------------------
Beginning of initial solution calculations.
-------------------------------------------

Initial solution 101.	

-----------------------------Solution composition------------------------------

	Elements           Molality       Moles

	C(4)              1.227e-04   1.227e-04
	Ca                1.227e-04   1.227e-04
	Cl                5.491e-12   5.491e-12
	Mg                3.245e-12   3.245e-12

----------------------------Description of solution----------------------------

                                       pH  =   9.910      Charge balance
                                       pe  =  -4.932    
                        Activity of water  =   1.000
                           Ionic strength  =   3.848e-04
                       Mass of water (kg)  =   1.000e+00
                 Total alkalinity (eq/kg)  =   2.454e-04
                       Total CO2 (mol/kg)  =   1.227e-04
                      Temperature (deg C)  =  25.00
                  Electrical balance (eq)  =  -1.762e-19
 Percent error, 100*(Cat-|An|)/(Cat+|An|)  =  -0.00
                               Iterations  =   4
                                  Total H  = 1.110126e+02
                                  Total O  = 5.550667e+01

----------------------------Distribution of species----------------------------

                                               Log       Log       Log    mole V
   Species          Molality    Activity  Molality  Activity     Gamma   cm3/mol

   OH-             8.317e-05   8.131e-05    -4.080    -4.090    -0.010     (0)  
   H+              1.258e-10   1.231e-10    -9.900    -9.910    -0.009      0.00
   H2O             5.551e+01   1.000e+00     1.744    -0.000     0.000     18.07
C(4)          1.227e-04
   HCO3-           8.316e-05   8.133e-05    -4.080    -4.090    -0.010     (0)  
   CO3-2           3.386e-05   3.098e-05    -4.470    -4.509    -0.039     (0)  
   CaCO3           5.564e-06   5.565e-06    -5.255    -5.255     0.000     (0)  
   CaHCO3+         1.134e-07   1.109e-07    -6.945    -6.955    -0.010     (0)  
   CO2             2.251e-08   2.251e-08    -7.648    -7.648     0.000     (0)  
   MgCO3           8.315e-14   8.315e-14   -13.080   -13.080     0.000     (0)  
   MgHCO3+         2.737e-15   2.677e-15   -14.563   -14.572    -0.010     (0)  
Ca            1.227e-04
   Ca+2            1.169e-04   1.069e-04    -3.932    -3.971    -0.039     (0)  
   CaCO3           5.564e-06   5.565e-06    -5.255    -5.255     0.000     (0)  
   CaOH+           1.474e-07   1.441e-07    -6.831    -6.841    -0.010     (0)  
   CaHCO3+         1.134e-07   1.109e-07    -6.945    -6.955    -0.010     (0)  
Cl            5.491e-12
   Cl-             5.491e-12   5.369e-12   -11.260   -11.270    -0.010     (0)  
H(0)          1.572e-13
   H2              7.862e-14   7.863e-14   -13.104   -13.104     0.000     (0)  
Mg            3.245e-12
   Mg+2            3.074e-12   2.813e-12   -11.512   -11.551    -0.039     (0)  
   MgOH+           8.484e-14   8.296e-14   -13.071   -13.081    -0.010     (0)  
   MgCO3           8.315e-14   8.315e-14   -13.080   -13.080     0.000     (0)  
   MgHCO3+         2.737e-15   2.677e-15   -14.563   -14.572    -0.010     (0)  
O(0)          0.000e+00
   O2              0.000e+00   0.000e+00   -66.171   -66.171     0.000     (0)  

------------------------------Saturation indices-------------------------------

	Phase               SI   log IAP   log K(298 K,   1 atm)

	Aragonite        -0.14     -8.48   -8.34  CaCO3
	Calcite          -0.00     -8.48   -8.48  CaCO3
	CO2(g)           -6.18     -7.65   -1.47  CO2
	Dolomite(dis)    -7.45    -24.54  -17.09  CaMg(CO3)2
	H2(g)            -9.91     33.09   43.00  H2
	O2(g)           -63.28    -66.17   -2.89  O2


-----------------------------------------
Beginning of batch-reaction calculations.
-----------------------------------------

Reaction step 1.

Using solution 101.	
Using pure phase assemblage 101.	

-------------------------------Phase assemblage--------------------------------

                                                      Moles in assemblage
Phase               SI  log IAP  log K(T, P)   Initial       Final       Delta

Calcite           0.00    -8.48     -8.48    1.220e-04   1.220e-04  -4.932e-17

-----------------------------Solution composition------------------------------

	Elements           Molality       Moles

	C                 1.227e-04   1.227e-04
	Ca                1.227e-04   1.227e-04
	Cl                5.491e-12   5.491e-12
	Mg                3.245e-12   3.245e-12

----------------------------Description of solution----------------------------

                                       pH  =   9.910      Charge balance
                                       pe  =  -4.910      Adjusted to redox equilibrium
                        Activity of water  =   1.000
                           Ionic strength  =   3.848e-04
                       Mass of water (kg)  =   1.000e+00
                 Total alkalinity (eq/kg)  =   2.454e-04
                       Total CO2 (mol/kg)  =   1.227e-04
                      Temperature (deg C)  =  25.00
                  Electrical balance (eq)  =   6.776e-20
 Percent error, 100*(Cat-|An|)/(Cat+|An|)  =   0.00
                               Iterations  =   1
                                  Total H  = 1.110126e+02
                                  Total O  = 5.550667e+01

----------------------------Distribution of species----------------------------

                                               Log       Log       Log    mole V
   Species          Molality    Activity  Molality  Activity     Gamma   cm3/mol

   OH-             8.317e-05   8.131e-05    -4.080    -4.090    -0.010     (0)  
   H+              1.258e-10   1.231e-10    -9.900    -9.910    -0.009      0.00
   H2O             5.551e+01   1.000e+00     1.744    -0.000     0.000     18.07
C(-4)         5.547e-24
   CH4             5.547e-24   5.548e-24   -23.256   -23.256     0.000     (0)  
C(4)          1.227e-04
   HCO3-           8.316e-05   8.133e-05    -4.080    -4.090    -0.010     (0)  
   CO3-2           3.386e-05   3.098e-05    -4.470    -4.509    -0.039     (0)  
   CaCO3           5.564e-06   5.565e-06    -5.255    -5.255     0.000     (0)  
   CaHCO3+         1.134e-07   1.109e-07    -6.945    -6.955    -0.010     (0)  
   CO2             2.251e-08   2.251e-08    -7.648    -7.648     0.000     (0)  
   MgCO3           8.315e-14   8.315e-14   -13.080   -13.080     0.000     (0)  
   MgHCO3+         2.737e-15   2.677e-15   -14.563   -14.572    -0.010     (0)  
Ca            1.227e-04
   Ca+2            1.169e-04   1.069e-04    -3.932    -3.971    -0.039     (0)  
   CaCO3           5.564e-06   5.565e-06    -5.255    -5.255     0.000     (0)  
   CaOH+           1.474e-07   1.441e-07    -6.831    -6.841    -0.010     (0)  
   CaHCO3+         1.134e-07   1.109e-07    -6.945    -6.955    -0.010     (0)  
Cl            5.491e-12
   Cl-             5.491e-12   5.369e-12   -11.260   -11.270    -0.010     (0)  
H(0)          1.417e-13
   H2              7.085e-14   7.085e-14   -13.150   -13.150     0.000     (0)  
Mg            3.245e-12
   Mg+2            3.074e-12   2.813e-12   -11.512   -11.551    -0.039     (0)  
   MgOH+           8.484e-14   8.296e-14   -13.071   -13.081    -0.010     (0)  
   MgCO3           8.315e-14   8.315e-14   -13.080   -13.080     0.000     (0)  
   MgHCO3+         2.737e-15   2.677e-15   -14.563   -14.572    -0.010     (0)  
O(0)          0.000e+00
   O2              0.000e+00   0.000e+00   -66.081   -66.081     0.000     (0)  

------------------------------Saturation indices-------------------------------

	Phase               SI   log IAP   log K(298 K,   1 atm)

	Aragonite        -0.14     -8.48   -8.34  CaCO3
	Calcite           0.00     -8.48   -8.48  CaCO3
	CH4(g)          -20.41    -23.26   -2.84  CH4
	CO2(g)           -6.18     -7.65   -1.47  CO2
	Dolomite(dis)    -7.45    -24.54  -17.09  CaMg(CO3)2
	H2(g)            -9.96     33.04   43.00  H2
	O2(g)           -63.19    -66.08   -2.89  O2


------------------
End of simulation.
------------------

--------------------------------------
Reading input data for simulation 102.
--------------------------------------

------------------------------
End of Run after 0.13 Seconds.
------------------------------

