   Input file: phinp.dat
  Output file: phinp.out
Database file: phreeqc.dat

------------------
Reading data base.
------------------

	SOLUTION_MASTER_SPECIES
	SOLUTION_SPECIES
	PHASES
	EXCHANGE_MASTER_SPECIES
	EXCHANGE_SPECIES
	SURFACE_MASTER_SPECIES
	SURFACE_SPECIES
	RATES
------------------------------------
Reading input data for simulation 1.
------------------------------------

	SOLUTION 1 #New Version 
	units mol/kgw 
	temp 25.000000 
	C(4)       1.000000000000e-10     # comp 
	Ca       1.000000000000e-10     # comp 
	Mg       1.000000000000e-03     # comp 
	Cl       2.000000000000e-03     # comp 
	pH       6.935779076244e+00 charge        # comp 
	pe       -6.545938224762e+00       # comp 
	EQUILIBRIUM_PHASES   1
	Calcite 0.000000000000e+00  0.000000000000e+00       # comp 
	PRINT
	 reset true
	 selected_output true
	SELECTED_OUTPUT
	file phout_sel.dat
	high_precision
	reset false
	USER_PUNCH
	heading  C(4) Ca Mg Cl pH  H+  pe  Calcite CO3-2
	 10 PUNCH  TOT("C(4)"), TOT("Ca"), TOT("Mg"), TOT("Cl"),
	 20 PUNCH  -LA("H+"),  MOL("H+"),   -LA("e-")
	 40 PUNCH  EQUI("Calcite"),
	 90 PUNCH MOL("CO3-2")
	END
-------------------------------------------
Beginning of initial solution calculations.
-------------------------------------------

Initial solution 1.	

-----------------------------Solution composition------------------------------

	Elements           Molality       Moles

	C(4)              1.000e-10   1.000e-10
	Ca                1.000e-10   1.000e-10
	Cl                2.000e-03   2.000e-03
	Mg                1.000e-03   1.000e-03

----------------------------Description of solution----------------------------

                                       pH  =   6.944      Charge balance
                                       pe  =  -6.546    
                        Activity of water  =   1.000
                           Ionic strength  =   3.000e-03
                       Mass of water (kg)  =   1.000e+00
                 Total alkalinity (eq/kg)  =   2.000e-10
                       Total CO2 (mol/kg)  =   1.000e-10
                      Temperature (deg C)  =  25.00
                  Electrical balance (eq)  =   1.906e-16
 Percent error, 100*(Cat-|An|)/(Cat+|An|)  =   0.00
                               Iterations  =   4
                                  Total H  = 1.110127e+02
                                  Total O  = 5.550622e+01

----------------------------Distribution of species----------------------------

                                               Log       Log       Log    mole V
   Species          Molality    Activity  Molality  Activity     Gamma   cm3/mol

   H+              1.202e-07   1.137e-07    -6.920    -6.944    -0.024      0.00
   OH-             9.349e-08   8.800e-08    -7.029    -7.056    -0.026     (0)  
   H2O             5.551e+01   9.999e-01     1.744    -0.000     0.000     18.07
C(4)          1.000e-10
   HCO3-           7.993e-11   7.538e-11   -10.097   -10.123    -0.025     (0)  
   CO2             1.927e-11   1.928e-11   -10.715   -10.715     0.000     (0)  
   MgHCO3+         7.420e-13   6.988e-13   -12.130   -12.156    -0.026     (0)  
   CO3-2           3.929e-14   3.108e-14   -13.406   -13.508    -0.102     (0)  
   MgCO3           2.348e-14   2.350e-14   -13.629   -13.629     0.000     (0)  
   CaHCO3+         8.063e-20   7.604e-20   -19.094   -19.119    -0.025     (0)  
   CaCO3           4.125e-21   4.128e-21   -20.385   -20.384     0.000     (0)  
Ca            1.000e-10
   Ca+2            1.000e-10   7.906e-11   -10.000   -10.102    -0.102     (0)  
   CaOH+           1.225e-16   1.153e-16   -15.912   -15.938    -0.026     (0)  
   CaHCO3+         8.063e-20   7.604e-20   -19.094   -19.119    -0.025     (0)  
   CaCO3           4.125e-21   4.128e-21   -20.385   -20.384     0.000     (0)  
Cl            2.000e-03
   Cl-             2.000e-03   1.883e-03    -2.699    -2.725    -0.026     (0)  
H(0)          2.262e-04
   H2              1.131e-04   1.132e-04    -3.947    -3.946     0.000     (0)  
Mg            1.000e-03
   Mg+2            1.000e-03   7.923e-04    -3.000    -3.101    -0.101     (0)  
   MgOH+           2.685e-08   2.529e-08    -7.571    -7.597    -0.026     (0)  
   MgHCO3+         7.420e-13   6.988e-13   -12.130   -12.156    -0.026     (0)  
   MgCO3           2.348e-14   2.350e-14   -13.629   -13.629     0.000     (0)  
O(0)          0.000e+00
   O2              0.000e+00   0.000e+00   -84.488   -84.488     0.000     (0)  

------------------------------Saturation indices-------------------------------

	Phase               SI   log IAP   log K(298 K,   1 atm)

	Aragonite       -15.27    -23.61   -8.34  CaCO3
	Calcite         -15.13    -23.61   -8.48  CaCO3
	CO2(g)           -9.25    -10.71   -1.47  CO2
	Dolomite(dis)   -23.13    -40.22  -17.09  CaMg(CO3)2
	H2(g)            -0.75     42.24   43.00  H2
	O2(g)           -81.60    -84.49   -2.89  O2


-----------------------------------------
Beginning of batch-reaction calculations.
-----------------------------------------

Reaction step 1.

Using solution 1.	
Using pure phase assemblage 1.	

-------------------------------Phase assemblage--------------------------------

                                                      Moles in assemblage
Phase               SI  log IAP  log K(T, P)   Initial       Final       Delta

Calcite         -35.62   -44.10     -8.48    0.000e+00           0   0.000e+00

-----------------------------Solution composition------------------------------

	Elements           Molality       Moles

	C                 1.000e-10   1.000e-10
	Ca                1.000e-10   1.000e-10
	Cl                2.000e-03   2.000e-03
	Mg                1.000e-03   1.000e-03

----------------------------Description of solution----------------------------

                                       pH  =   6.944      Charge balance
                                       pe  =  -6.546      Adjusted to redox equilibrium
                        Activity of water  =   1.000
                           Ionic strength  =   3.000e-03
                       Mass of water (kg)  =   1.000e+00
                 Total alkalinity (eq/kg)  =   2.000e-10
                       Total CO2 (mol/kg)  =   3.235e-31
                      Temperature (deg C)  =  25.00
                  Electrical balance (eq)  =   1.903e-16
 Percent error, 100*(Cat-|An|)/(Cat+|An|)  =   0.00
                               Iterations  =   3
                                  Total H  = 1.110127e+02
                                  Total O  = 5.550622e+01

----------------------------Distribution of species----------------------------

                                               Log       Log       Log    mole V
   Species          Molality    Activity  Molality  Activity     Gamma   cm3/mol

   H+              1.202e-07   1.137e-07    -6.920    -6.944    -0.024      0.00
   OH-             9.352e-08   8.803e-08    -7.029    -7.055    -0.026     (0)  
   H2O             5.551e+01   9.999e-01     1.744    -0.000     0.000     18.07
C(-4)         1.000e-10
   CH4             1.000e-10   1.001e-10   -10.000   -10.000     0.000     (0)  
C(4)          3.235e-31
   HCO3-           2.586e-31   2.439e-31   -30.587   -30.613    -0.025     (0)  
   CO2             6.231e-32   6.236e-32   -31.205   -31.205     0.000     (0)  
   MgHCO3+         2.401e-33   2.261e-33   -32.620   -32.646    -0.026     (0)  
   CO3-2           1.272e-34   1.006e-34   -33.896   -33.997    -0.102     (0)  
   MgCO3           7.600e-35   7.605e-35   -34.119   -34.119     0.000     (0)  
   CaHCO3+         2.609e-40   2.460e-40   -39.584   -39.609    -0.025     (0)  
   CaCO3           0.000e+00   0.000e+00   -40.875   -40.874     0.000     (0)  
Ca            1.000e-10
   Ca+2            1.000e-10   7.906e-11   -10.000   -10.102    -0.102     (0)  
   CaOH+           1.225e-16   1.154e-16   -15.912   -15.938    -0.026     (0)  
   CaHCO3+         2.609e-40   2.460e-40   -39.584   -39.609    -0.025     (0)  
   CaCO3           0.000e+00   0.000e+00   -40.875   -40.874     0.000     (0)  
Cl            2.000e-03
   Cl-             2.000e-03   1.883e-03    -2.699    -2.725    -0.026     (0)  
H(0)          2.262e-04
   H2              1.131e-04   1.132e-04    -3.947    -3.946     0.000     (0)  
Mg            1.000e-03
   Mg+2            1.000e-03   7.923e-04    -3.000    -3.101    -0.101     (0)  
   MgOH+           2.686e-08   2.530e-08    -7.571    -7.597    -0.026     (0)  
   MgHCO3+         2.401e-33   2.261e-33   -32.620   -32.646    -0.026     (0)  
   MgCO3           7.600e-35   7.605e-35   -34.119   -34.119     0.000     (0)  
O(0)          0.000e+00
   O2              0.000e+00   0.000e+00   -84.488   -84.488     0.000     (0)  

------------------------------Saturation indices-------------------------------

	Phase               SI   log IAP   log K(298 K,   1 atm)

	Aragonite       -35.76    -44.10   -8.34  CaCO3
	Calcite         -35.62    -44.10   -8.48  CaCO3
	CH4(g)           -7.16    -10.00   -2.84  CH4
	CO2(g)          -29.74    -31.21   -1.47  CO2
	Dolomite(dis)   -64.11    -81.20  -17.09  CaMg(CO3)2
	H2(g)            -0.75     42.24   43.00  H2
	O2(g)           -81.60    -84.49   -2.89  O2


------------------
End of simulation.
------------------

------------------------------------
Reading input data for simulation 2.
------------------------------------

	SOLUTION 2 #New Version 
	units mol/kgw 
	temp 25.000000 
	C(4)       7.154617264512e-09     # comp 
	Ca       4.466986043221e-09     # comp 
	Mg       9.999987419393e-04     # comp 
	Cl       1.999991911190e-03     # comp 
	pH       6.944676000866e+00 charge        # comp 
	pe       -3.324698392249e+00       # comp 
	EQUILIBRIUM_PHASES   2
	Calcite 0.000000000000e+00  0.000000000000e+00       # comp 
	END
-------------------------------------------
Beginning of initial solution calculations.
-------------------------------------------

Initial solution 2.	

-----------------------------Solution composition------------------------------

	Elements           Molality       Moles

	C(4)              7.155e-09   7.155e-09
	Ca                4.467e-09   4.467e-09
	Cl                2.000e-03   2.000e-03
	Mg                1.000e-03   1.000e-03

----------------------------Description of solution----------------------------

                                       pH  =   6.960      Charge balance
                                       pe  =  -3.325    
                        Activity of water  =   1.000
                           Ionic strength  =   3.000e-03
                       Mass of water (kg)  =   1.000e+00
                 Total alkalinity (eq/kg)  =   1.451e-08
                       Total CO2 (mol/kg)  =   7.155e-09
                      Temperature (deg C)  =  25.00
                  Electrical balance (eq)  =   1.910e-16
 Percent error, 100*(Cat-|An|)/(Cat+|An|)  =   0.00
                               Iterations  =   4
                                  Total H  = 1.110124e+02
                                  Total O  = 5.550622e+01

----------------------------Distribution of species----------------------------

                                               Log       Log       Log    mole V
   Species          Molality    Activity  Molality  Activity     Gamma   cm3/mol

   H+              1.160e-07   1.098e-07    -6.935    -6.960    -0.024      0.00
   OH-             9.688e-08   9.119e-08    -7.014    -7.040    -0.026     (0)  
   H2O             5.551e+01   9.999e-01     1.744    -0.000     0.000     18.07
C(4)          7.155e-09
   HCO3-           5.757e-09   5.429e-09    -8.240    -8.265    -0.025     (0)  
   CO2             1.339e-09   1.340e-09    -8.873    -8.873     0.000     (0)  
   MgHCO3+         5.345e-11   5.034e-11   -10.272   -10.298    -0.026     (0)  
   CO3-2           2.933e-12   2.320e-12   -11.533   -11.635    -0.102     (0)  
   MgCO3           1.753e-12   1.754e-12   -11.756   -11.756     0.000     (0)  
   CaHCO3+         2.594e-16   2.447e-16   -15.586   -15.611    -0.025     (0)  
   CaCO3           1.375e-17   1.376e-17   -16.862   -16.861     0.000     (0)  
Ca            4.467e-09
   Ca+2            4.467e-09   3.532e-09    -8.350    -8.452    -0.102     (0)  
   CaOH+           5.669e-15   5.339e-15   -14.246   -14.273    -0.026     (0)  
   CaHCO3+         2.594e-16   2.447e-16   -15.586   -15.611    -0.025     (0)  
   CaCO3           1.375e-17   1.376e-17   -16.862   -16.861     0.000     (0)  
Cl            2.000e-03
   Cl-             2.000e-03   1.883e-03    -2.699    -2.725    -0.026     (0)  
H(0)          7.605e-11
   H2              3.803e-11   3.805e-11   -10.420   -10.420     0.000     (0)  
Mg            1.000e-03
   Mg+2            1.000e-03   7.923e-04    -3.000    -3.101    -0.101     (0)  
   MgOH+           2.782e-08   2.621e-08    -7.556    -7.582    -0.026     (0)  
   MgHCO3+         5.345e-11   5.034e-11   -10.272   -10.298    -0.026     (0)  
   MgCO3           1.753e-12   1.754e-12   -11.756   -11.756     0.000     (0)  
O(0)          0.000e+00
   O2              0.000e+00   0.000e+00   -71.541   -71.541     0.000     (0)  

------------------------------Saturation indices-------------------------------

	Phase               SI   log IAP   log K(298 K,   1 atm)

	Aragonite       -11.75    -20.09   -8.34  CaCO3
	Calcite         -11.61    -20.09   -8.48  CaCO3
	CO2(g)           -7.40     -8.87   -1.47  CO2
	Dolomite(dis)   -17.73    -34.82  -17.09  CaMg(CO3)2
	H2(g)            -7.23     35.77   43.00  H2
	O2(g)           -68.65    -71.54   -2.89  O2


-----------------------------------------
Beginning of batch-reaction calculations.
-----------------------------------------

Reaction step 1.

Using solution 2.	
Using pure phase assemblage 2.	

-------------------------------Phase assemblage--------------------------------

                                                      Moles in assemblage
Phase               SI  log IAP  log K(T, P)   Initial       Final       Delta

Calcite         -11.61   -20.09     -8.48    0.000e+00           0   0.000e+00

-----------------------------Solution composition------------------------------

	Elements           Molality       Moles

	C                 7.155e-09   7.155e-09
	Ca                4.467e-09   4.467e-09
	Cl                2.000e-03   2.000e-03
	Mg                1.000e-03   1.000e-03

----------------------------Description of solution----------------------------

                                       pH  =   6.960      Charge balance
                                       pe  =  -3.324      Adjusted to redox equilibrium
                        Activity of water  =   1.000
                           Ionic strength  =   3.000e-03
                       Mass of water (kg)  =   1.000e+00
                 Total alkalinity (eq/kg)  =   1.451e-08
                       Total CO2 (mol/kg)  =   7.155e-09
                      Temperature (deg C)  =  25.00
                  Electrical balance (eq)  =   2.014e-16
 Percent error, 100*(Cat-|An|)/(Cat+|An|)  =   0.00
                               Iterations  =   1
                                  Total H  = 1.110124e+02
                                  Total O  = 5.550622e+01

----------------------------Distribution of species----------------------------

                                               Log       Log       Log    mole V
   Species          Molality    Activity  Molality  Activity     Gamma   cm3/mol

   H+              1.160e-07   1.098e-07    -6.935    -6.960    -0.024      0.00
   OH-             9.688e-08   9.119e-08    -7.014    -7.040    -0.026     (0)  
   H2O             5.551e+01   9.999e-01     1.744    -0.000     0.000     18.07
C(-4)         2.714e-14
   CH4             2.714e-14   2.716e-14   -13.566   -13.566     0.000     (0)  
C(4)          7.155e-09
   HCO3-           5.757e-09   5.429e-09    -8.240    -8.265    -0.025     (0)  
   CO2             1.339e-09   1.340e-09    -8.873    -8.873     0.000     (0)  
   MgHCO3+         5.344e-11   5.034e-11   -10.272   -10.298    -0.026     (0)  
   CO3-2           2.933e-12   2.320e-12   -11.533   -11.635    -0.102     (0)  
   MgCO3           1.753e-12   1.754e-12   -11.756   -11.756     0.000     (0)  
   CaHCO3+         2.594e-16   2.446e-16   -15.586   -15.611    -0.025     (0)  
   CaCO3           1.375e-17   1.376e-17   -16.862   -16.861     0.000     (0)  
Ca            4.467e-09
   Ca+2            4.467e-09   3.532e-09    -8.350    -8.452    -0.102     (0)  
   CaOH+           5.669e-15   5.339e-15   -14.246   -14.273    -0.026     (0)  
   CaHCO3+         2.594e-16   2.446e-16   -15.586   -15.611    -0.025     (0)  
   CaCO3           1.375e-17   1.376e-17   -16.862   -16.861     0.000     (0)  
Cl            2.000e-03
   Cl-             2.000e-03   1.883e-03    -2.699    -2.725    -0.026     (0)  
H(0)          7.583e-11
   H2              3.791e-11   3.794e-11   -10.421   -10.421     0.000     (0)  
Mg            1.000e-03
   Mg+2            1.000e-03   7.923e-04    -3.000    -3.101    -0.101     (0)  
   MgOH+           2.782e-08   2.621e-08    -7.556    -7.582    -0.026     (0)  
   MgHCO3+         5.344e-11   5.034e-11   -10.272   -10.298    -0.026     (0)  
   MgCO3           1.753e-12   1.754e-12   -11.756   -11.756     0.000     (0)  
O(0)          0.000e+00
   O2              0.000e+00   0.000e+00   -71.539   -71.538     0.000     (0)  

------------------------------Saturation indices-------------------------------

	Phase               SI   log IAP   log K(298 K,   1 atm)

	Aragonite       -11.75    -20.09   -8.34  CaCO3
	Calcite         -11.61    -20.09   -8.48  CaCO3
	CH4(g)          -10.72    -13.57   -2.84  CH4
	CO2(g)           -7.40     -8.87   -1.47  CO2
	Dolomite(dis)   -17.73    -34.82  -17.09  CaMg(CO3)2
	H2(g)            -7.23     35.77   43.00  H2
	O2(g)           -68.65    -71.54   -2.89  O2


------------------
End of simulation.
------------------

------------------------------------
Reading input data for simulation 3.
------------------------------------

	SOLUTION 3 #New Version 
	units mol/kgw 
	temp 25.000000 
	C(4)       2.091201909608e-08     # comp 
	Ca       1.283824382072e-08     # comp 
	Mg       9.999965018856e-04     # comp 
	Cl       1.999976657416e-03     # comp 
	pH       6.972915293251e+00 charge        # comp 
	pe       1.107888710775e+01       # comp 
	EQUILIBRIUM_PHASES   3
	Calcite 0.000000000000e+00  0.000000000000e+00       # comp 
	END
-------------------------------------------
Beginning of initial solution calculations.
-------------------------------------------

Initial solution 3.	

-----------------------------Solution composition------------------------------

	Elements           Molality       Moles

	C(4)              2.091e-08   2.091e-08
	Ca                1.284e-08   1.284e-08
	Cl                2.000e-03   2.000e-03
	Mg                1.000e-03   1.000e-03

----------------------------Description of solution----------------------------

                                       pH  =   6.989      Charge balance
                                       pe  =  11.079    
                        Activity of water  =   1.000
                           Ionic strength  =   3.000e-03
                       Mass of water (kg)  =   1.000e+00
                 Total alkalinity (eq/kg)  =   4.202e-08
                       Total CO2 (mol/kg)  =   2.091e-08
                      Temperature (deg C)  =  25.00
                  Electrical balance (eq)  =   1.914e-16
 Percent error, 100*(Cat-|An|)/(Cat+|An|)  =   0.00
                               Iterations  =   4
                                  Total H  = 1.110124e+02
                                  Total O  = 5.550622e+01

----------------------------Distribution of species----------------------------

                                               Log       Log       Log    mole V
   Species          Molality    Activity  Molality  Activity     Gamma   cm3/mol

   H+              1.085e-07   1.027e-07    -6.964    -6.989    -0.024      0.00
   OH-             1.036e-07   9.749e-08    -6.985    -7.011    -0.026     (0)  
   H2O             5.551e+01   9.999e-01     1.744    -0.000     0.000     18.07
C(4)          2.091e-08
   HCO3-           1.703e-08   1.606e-08    -7.769    -7.794    -0.025     (0)  
   CO2             3.706e-09   3.708e-09    -8.431    -8.431     0.000     (0)  
   MgHCO3+         1.581e-10   1.489e-10    -9.801    -9.827    -0.026     (0)  
   CO3-2           9.276e-12   7.337e-12   -11.033   -11.134    -0.102     (0)  
   MgCO3           5.543e-12   5.547e-12   -11.256   -11.256     0.000     (0)  
   CaHCO3+         2.206e-15   2.080e-15   -14.656   -14.682    -0.025     (0)  
   CaCO3           1.250e-16   1.251e-16   -15.903   -15.903     0.000     (0)  
Ca            1.284e-08
   Ca+2            1.284e-08   1.015e-08    -7.891    -7.994    -0.102     (0)  
   CaOH+           1.742e-14   1.641e-14   -13.759   -13.785    -0.026     (0)  
   CaHCO3+         2.206e-15   2.080e-15   -14.656   -14.682    -0.025     (0)  
   CaCO3           1.250e-16   1.251e-16   -15.903   -15.903     0.000     (0)  
Cl            2.000e-03
   Cl-             2.000e-03   1.883e-03    -2.699    -2.725    -0.026     (0)  
H(0)          1.037e-39
   H2              5.186e-40   5.190e-40   -39.285   -39.285     0.000     (0)  
Mg            1.000e-03
   Mg+2            1.000e-03   7.923e-04    -3.000    -3.101    -0.101     (0)  
   MgOH+           2.975e-08   2.802e-08    -7.527    -7.553    -0.026     (0)  
   MgHCO3+         1.581e-10   1.489e-10    -9.801    -9.827    -0.026     (0)  
   MgCO3           5.543e-12   5.547e-12   -11.256   -11.256     0.000     (0)  
O(0)          3.093e-14
   O2              1.546e-14   1.547e-14   -13.811   -13.810     0.000     (0)  

------------------------------Saturation indices-------------------------------

	Phase               SI   log IAP   log K(298 K,   1 atm)

	Aragonite       -10.79    -19.13   -8.34  CaCO3
	Calcite         -10.65    -19.13   -8.48  CaCO3
	CO2(g)           -6.96     -8.43   -1.47  CO2
	Dolomite(dis)   -16.27    -33.36  -17.09  CaMg(CO3)2
	H2(g)           -36.09      6.91   43.00  H2
	O2(g)           -10.92    -13.81   -2.89  O2


-----------------------------------------
Beginning of batch-reaction calculations.
-----------------------------------------

Reaction step 1.

Using solution 3.	
Using pure phase assemblage 3.	

-------------------------------Phase assemblage--------------------------------

                                                      Moles in assemblage
Phase               SI  log IAP  log K(T, P)   Initial       Final       Delta

Calcite         -10.65   -19.13     -8.48    0.000e+00           0   0.000e+00

-----------------------------Solution composition------------------------------

	Elements           Molality       Moles

	C                 2.091e-08   2.091e-08
	Ca                1.284e-08   1.284e-08
	Cl                2.000e-03   2.000e-03
	Mg                1.000e-03   1.000e-03

----------------------------Description of solution----------------------------

                                       pH  =   6.989      Charge balance
                                       pe  =  11.051      Adjusted to redox equilibrium
                        Activity of water  =   1.000
                           Ionic strength  =   3.000e-03
                       Mass of water (kg)  =   1.000e+00
                 Total alkalinity (eq/kg)  =   4.202e-08
                       Total CO2 (mol/kg)  =   2.091e-08
                      Temperature (deg C)  =  25.00
                  Electrical balance (eq)  =   2.018e-16
 Percent error, 100*(Cat-|An|)/(Cat+|An|)  =   0.00
                               Iterations  =   1
                                  Total H  = 1.110124e+02
                                  Total O  = 5.550622e+01

----------------------------Distribution of species----------------------------

                                               Log       Log       Log    mole V
   Species          Molality    Activity  Molality  Activity     Gamma   cm3/mol

   H+              1.085e-07   1.027e-07    -6.964    -6.989    -0.024      0.00
   OH-             1.036e-07   9.749e-08    -6.985    -7.011    -0.026     (0)  
   H2O             5.551e+01   9.999e-01     1.744    -0.000     0.000     18.07
C(-4)         0.000e+00
   CH4             0.000e+00   0.000e+00  -128.357  -128.357     0.000     (0)  
C(4)          2.091e-08
   HCO3-           1.703e-08   1.606e-08    -7.769    -7.794    -0.025     (0)  
   CO2             3.706e-09   3.708e-09    -8.431    -8.431     0.000     (0)  
   MgHCO3+         1.581e-10   1.489e-10    -9.801    -9.827    -0.026     (0)  
   CO3-2           9.276e-12   7.337e-12   -11.033   -11.134    -0.102     (0)  
   MgCO3           5.543e-12   5.547e-12   -11.256   -11.256     0.000     (0)  
   CaHCO3+         2.206e-15   2.080e-15   -14.656   -14.682    -0.025     (0)  
   CaCO3           1.250e-16   1.251e-16   -15.903   -15.903     0.000     (0)  
Ca            1.284e-08
   Ca+2            1.284e-08   1.015e-08    -7.891    -7.994    -0.102     (0)  
   CaOH+           1.742e-14   1.641e-14   -13.759   -13.785    -0.026     (0)  
   CaHCO3+         2.206e-15   2.080e-15   -14.656   -14.682    -0.025     (0)  
   CaCO3           1.250e-16   1.251e-16   -15.903   -15.903     0.000     (0)  
Cl            2.000e-03
   Cl-             2.000e-03   1.883e-03    -2.699    -2.725    -0.026     (0)  
H(0)          1.179e-39
   H2              5.897e-40   5.901e-40   -39.229   -39.229     0.000     (0)  
Mg            1.000e-03
   Mg+2            1.000e-03   7.923e-04    -3.000    -3.101    -0.101     (0)  
   MgOH+           2.975e-08   2.802e-08    -7.527    -7.553    -0.026     (0)  
   MgHCO3+         1.581e-10   1.489e-10    -9.801    -9.827    -0.026     (0)  
   MgCO3           5.543e-12   5.547e-12   -11.256   -11.256     0.000     (0)  
O(0)          2.392e-14
   O2              1.196e-14   1.197e-14   -13.922   -13.922     0.000     (0)  

------------------------------Saturation indices-------------------------------

	Phase               SI   log IAP   log K(298 K,   1 atm)

	Aragonite       -10.79    -19.13   -8.34  CaCO3
	Calcite         -10.65    -19.13   -8.48  CaCO3
	CH4(g)         -125.51   -128.36   -2.84  CH4
	CO2(g)           -6.96     -8.43   -1.47  CO2
	Dolomite(dis)   -16.27    -33.36  -17.09  CaMg(CO3)2
	H2(g)           -36.04      6.96   43.00  H2
	O2(g)           -11.03    -13.92   -2.89  O2


------------------
End of simulation.
------------------

------------------------------------
Reading input data for simulation 4.
------------------------------------

	SOLUTION 4 #New Version 
	units mol/kgw 
	temp 25.000000 
	C(4)       4.578084749097e-08     # comp 
	Ca       2.789237018919e-08     # comp 
	Mg       9.999929580211e-04     # comp 
	Cl       1.999949937595e-03     # comp 
	pH       7.021529744692e+00 charge        # comp 
	pe       1.114442675803e+01       # comp 
	EQUILIBRIUM_PHASES   4
	Calcite 0.000000000000e+00  0.000000000000e+00       # comp 
	END
-------------------------------------------
Beginning of initial solution calculations.
-------------------------------------------

Initial solution 4.	

-----------------------------Solution composition------------------------------

	Elements           Molality       Moles

	C(4)              4.578e-08   4.578e-08
	Ca                2.789e-08   2.789e-08
	Cl                2.000e-03   2.000e-03
	Mg                1.000e-03   1.000e-03

----------------------------Description of solution----------------------------

                                       pH  =   7.039      Charge balance
                                       pe  =  11.144    
                        Activity of water  =   1.000
                           Ionic strength  =   3.000e-03
                       Mass of water (kg)  =   1.000e+00
                 Total alkalinity (eq/kg)  =   9.176e-08
                       Total CO2 (mol/kg)  =   4.578e-08
                      Temperature (deg C)  =  25.00
                  Electrical balance (eq)  =   1.893e-16
 Percent error, 100*(Cat-|An|)/(Cat+|An|)  =   0.00
                               Iterations  =   4
                                  Total H  = 1.110124e+02
                                  Total O  = 5.550622e+01

----------------------------Distribution of species----------------------------

                                               Log       Log       Log    mole V
   Species          Molality    Activity  Molality  Activity     Gamma   cm3/mol

   OH-             1.164e-07   1.096e-07    -6.934    -6.960    -0.026     (0)  
   H+              9.655e-08   9.135e-08    -7.015    -7.039    -0.024      0.00
   H2O             5.551e+01   9.999e-01     1.744    -0.000     0.000     18.07
C(4)          4.578e-08
   HCO3-           3.803e-08   3.586e-08    -7.420    -7.445    -0.025     (0)  
   CO2             7.361e-09   7.366e-09    -8.133    -8.133     0.000     (0)  
   MgHCO3+         3.530e-10   3.325e-10    -9.452    -9.478    -0.026     (0)  
   CO3-2           2.328e-11   1.841e-11   -10.633   -10.735    -0.102     (0)  
   MgCO3           1.391e-11   1.392e-11   -10.857   -10.856     0.000     (0)  
   CaHCO3+         1.070e-14   1.009e-14   -13.971   -13.996    -0.025     (0)  
   CaCO3           6.816e-16   6.821e-16   -15.166   -15.166     0.000     (0)  
Ca            2.789e-08
   Ca+2            2.789e-08   2.205e-08    -7.555    -7.657    -0.102     (0)  
   CaOH+           4.254e-14   4.006e-14   -13.371   -13.397    -0.026     (0)  
   CaHCO3+         1.070e-14   1.009e-14   -13.971   -13.996    -0.025     (0)  
   CaCO3           6.816e-16   6.821e-16   -15.166   -15.166     0.000     (0)  
Cl            2.000e-03
   Cl-             2.000e-03   1.883e-03    -2.699    -2.725    -0.026     (0)  
H(0)          6.071e-40
   H2              3.036e-40   3.038e-40   -39.518   -39.517     0.000     (0)  
Mg            1.000e-03
   Mg+2            1.000e-03   7.923e-04    -3.000    -3.101    -0.101     (0)  
   MgOH+           3.344e-08   3.149e-08    -7.476    -7.502    -0.026     (0)  
   MgHCO3+         3.530e-10   3.325e-10    -9.452    -9.478    -0.026     (0)  
   MgCO3           1.391e-11   1.392e-11   -10.857   -10.856     0.000     (0)  
O(0)          9.028e-14
   O2              4.514e-14   4.517e-14   -13.345   -13.345     0.000     (0)  

------------------------------Saturation indices-------------------------------

	Phase               SI   log IAP   log K(298 K,   1 atm)

	Aragonite       -10.06    -18.39   -8.34  CaCO3
	Calcite          -9.91    -18.39   -8.48  CaCO3
	CO2(g)           -6.66     -8.13   -1.47  CO2
	Dolomite(dis)   -15.14    -32.23  -17.09  CaMg(CO3)2
	H2(g)           -36.33      6.67   43.00  H2
	O2(g)           -10.45    -13.35   -2.89  O2


-----------------------------------------
Beginning of batch-reaction calculations.
-----------------------------------------

Reaction step 1.

Using solution 4.	
Using pure phase assemblage 4.	

-------------------------------Phase assemblage--------------------------------

                                                      Moles in assemblage
Phase               SI  log IAP  log K(T, P)   Initial       Final       Delta

Calcite          -9.91   -18.39     -8.48    0.000e+00           0   0.000e+00

-----------------------------Solution composition------------------------------

	Elements           Molality       Moles

	C                 4.578e-08   4.578e-08
	Ca                2.789e-08   2.789e-08
	Cl                2.000e-03   2.000e-03
	Mg                1.000e-03   1.000e-03

----------------------------Description of solution----------------------------

                                       pH  =   7.039      Charge balance
                                       pe  =  11.136      Adjusted to redox equilibrium
                        Activity of water  =   1.000
                           Ionic strength  =   3.000e-03
                       Mass of water (kg)  =   1.000e+00
                 Total alkalinity (eq/kg)  =   9.176e-08
                       Total CO2 (mol/kg)  =   4.578e-08
                      Temperature (deg C)  =  25.00
                  Electrical balance (eq)  =   1.976e-16
 Percent error, 100*(Cat-|An|)/(Cat+|An|)  =   0.00
                               Iterations  =   1
                                  Total H  = 1.110124e+02
                                  Total O  = 5.550622e+01

----------------------------Distribution of species----------------------------

                                               Log       Log       Log    mole V
   Species          Molality    Activity  Molality  Activity     Gamma   cm3/mol

   OH-             1.164e-07   1.096e-07    -6.934    -6.960    -0.026     (0)  
   H+              9.655e-08   9.135e-08    -7.015    -7.039    -0.024      0.00
   H2O             5.551e+01   9.999e-01     1.744    -0.000     0.000     18.07
C(-4)         0.000e+00
   CH4             0.000e+00   0.000e+00  -129.147  -129.147     0.000     (0)  
C(4)          4.578e-08
   HCO3-           3.803e-08   3.586e-08    -7.420    -7.445    -0.025     (0)  
   CO2             7.361e-09   7.366e-09    -8.133    -8.133     0.000     (0)  
   MgHCO3+         3.530e-10   3.325e-10    -9.452    -9.478    -0.026     (0)  
   CO3-2           2.328e-11   1.841e-11   -10.633   -10.735    -0.102     (0)  
   MgCO3           1.391e-11   1.392e-11   -10.857   -10.856     0.000     (0)  
   CaHCO3+         1.070e-14   1.009e-14   -13.971   -13.996    -0.025     (0)  
   CaCO3           6.816e-16   6.821e-16   -15.166   -15.166     0.000     (0)  
Ca            2.789e-08
   Ca+2            2.789e-08   2.205e-08    -7.555    -7.657    -0.102     (0)  
   CaOH+           4.254e-14   4.006e-14   -13.371   -13.397    -0.026     (0)  
   CaHCO3+         1.070e-14   1.009e-14   -13.971   -13.996    -0.025     (0)  
   CaCO3           6.816e-16   6.821e-16   -15.166   -15.166     0.000     (0)  
Cl            2.000e-03
   Cl-             2.000e-03   1.883e-03    -2.699    -2.725    -0.026     (0)  
H(0)          6.305e-40
   H2              3.152e-40   3.155e-40   -39.501   -39.501     0.000     (0)  
Mg            1.000e-03
   Mg+2            1.000e-03   7.923e-04    -3.000    -3.101    -0.101     (0)  
   MgOH+           3.344e-08   3.149e-08    -7.476    -7.502    -0.026     (0)  
   MgHCO3+         3.530e-10   3.325e-10    -9.452    -9.478    -0.026     (0)  
   MgCO3           1.391e-11   1.392e-11   -10.857   -10.856     0.000     (0)  
O(0)          8.372e-14
   O2              4.186e-14   4.189e-14   -13.378   -13.378     0.000     (0)  

------------------------------Saturation indices-------------------------------

	Phase               SI   log IAP   log K(298 K,   1 atm)

	Aragonite       -10.06    -18.39   -8.34  CaCO3
	Calcite          -9.91    -18.39   -8.48  CaCO3
	CH4(g)         -126.30   -129.15   -2.84  CH4
	CO2(g)           -6.66     -8.13   -1.47  CO2
	Dolomite(dis)   -15.14    -32.23  -17.09  CaMg(CO3)2
	H2(g)           -36.31      6.69   43.00  H2
	O2(g)           -10.49    -13.38   -2.89  O2


------------------
End of simulation.
------------------

------------------------------------
Reading input data for simulation 5.
------------------------------------

	SOLUTION 5 #New Version 
	units mol/kgw 
	temp 25.000000 
	C(4)       8.897084312060e-08     # comp 
	Ca       5.386293609544e-08     # comp 
	Mg       9.999879236605e-04     # comp 
	Cl       1.999905425486e-03     # comp 
	pH       7.098563756956e+00 charge        # comp 
	pe       -3.500510974054e+00       # comp 
	EQUILIBRIUM_PHASES   5
	Calcite 0.000000000000e+00  0.000000000000e+00       # comp 
	END
-------------------------------------------
Beginning of initial solution calculations.
-------------------------------------------

Initial solution 5.	

-----------------------------Solution composition------------------------------

	Elements           Molality       Moles

	C(4)              8.897e-08   8.897e-08
	Ca                5.386e-08   5.386e-08
	Cl                2.000e-03   2.000e-03
	Mg                1.000e-03   1.000e-03

----------------------------Description of solution----------------------------

                                       pH  =   7.122      Charge balance
                                       pe  =  -3.501    
                        Activity of water  =   1.000
                           Ionic strength  =   3.000e-03
                       Mass of water (kg)  =   1.000e+00
                 Total alkalinity (eq/kg)  =   1.781e-07
                       Total CO2 (mol/kg)  =   8.897e-08
                      Temperature (deg C)  =  25.00
                  Electrical balance (eq)  =   1.906e-16
 Percent error, 100*(Cat-|An|)/(Cat+|An|)  =   0.00
                               Iterations  =   4
                                  Total H  = 1.110124e+02
                                  Total O  = 5.550622e+01

----------------------------Distribution of species----------------------------

                                               Log       Log       Log    mole V
   Species          Molality    Activity  Molality  Activity     Gamma   cm3/mol

   OH-             1.407e-07   1.325e-07    -6.852    -6.878    -0.026     (0)  
   H+              7.988e-08   7.557e-08    -7.098    -7.122    -0.024      0.00
   H2O             5.551e+01   9.999e-01     1.744    -0.000     0.000     18.07
C(4)          8.897e-08
   HCO3-           7.600e-08   7.168e-08    -7.119    -7.145    -0.025     (0)  
   CO2             1.217e-08   1.218e-08    -7.915    -7.914     0.000     (0)  
   MgHCO3+         7.055e-10   6.645e-10    -9.151    -9.178    -0.026     (0)  
   CO3-2           5.623e-11   4.448e-11   -10.250   -10.352    -0.102     (0)  
   MgCO3           3.361e-11   3.363e-11   -10.474   -10.473     0.000     (0)  
   CaHCO3+         4.130e-14   3.894e-14   -13.384   -13.410    -0.025     (0)  
   CaCO3           3.180e-15   3.182e-15   -14.498   -14.497     0.000     (0)  
Ca            5.386e-08
   Ca+2            5.386e-08   4.259e-08    -7.269    -7.371    -0.102     (0)  
   CaOH+           9.929e-14   9.351e-14   -13.003   -13.029    -0.026     (0)  
   CaHCO3+         4.130e-14   3.894e-14   -13.384   -13.410    -0.025     (0)  
   CaCO3           3.180e-15   3.182e-15   -14.498   -14.497     0.000     (0)  
Cl            2.000e-03
   Cl-             2.000e-03   1.883e-03    -2.699    -2.725    -0.026     (0)  
H(0)          8.100e-11
   H2              4.050e-11   4.053e-11   -10.393   -10.392     0.000     (0)  
Mg            1.000e-03
   Mg+2            9.999e-04   7.923e-04    -3.000    -3.101    -0.101     (0)  
   MgOH+           4.041e-08   3.806e-08    -7.393    -7.419    -0.026     (0)  
   MgHCO3+         7.055e-10   6.645e-10    -9.151    -9.178    -0.026     (0)  
   MgCO3           3.361e-11   3.363e-11   -10.474   -10.473     0.000     (0)  
O(0)          0.000e+00
   O2              0.000e+00   0.000e+00   -71.596   -71.596     0.000     (0)  

------------------------------Saturation indices-------------------------------

	Phase               SI   log IAP   log K(298 K,   1 atm)

	Aragonite        -9.39    -17.72   -8.34  CaCO3
	Calcite          -9.24    -17.72   -8.48  CaCO3
	CO2(g)           -6.45     -7.91   -1.47  CO2
	Dolomite(dis)   -14.09    -31.18  -17.09  CaMg(CO3)2
	H2(g)            -7.20     35.80   43.00  H2
	O2(g)           -68.70    -71.60   -2.89  O2


-----------------------------------------
Beginning of batch-reaction calculations.
-----------------------------------------

Reaction step 1.

Using solution 5.	
Using pure phase assemblage 5.	

-------------------------------Phase assemblage--------------------------------

                                                      Moles in assemblage
Phase               SI  log IAP  log K(T, P)   Initial       Final       Delta

Calcite          -9.24   -17.72     -8.48    0.000e+00           0   0.000e+00

-----------------------------Solution composition------------------------------

	Elements           Molality       Moles

	C                 8.897e-08   8.897e-08
	Ca                5.386e-08   5.386e-08
	Cl                2.000e-03   2.000e-03
	Mg                1.000e-03   1.000e-03

----------------------------Description of solution----------------------------

                                       pH  =   7.122      Charge balance
                                       pe  =  -3.494      Adjusted to redox equilibrium
                        Activity of water  =   1.000
                           Ionic strength  =   3.000e-03
                       Mass of water (kg)  =   1.000e+00
                 Total alkalinity (eq/kg)  =   1.781e-07
                       Total CO2 (mol/kg)  =   8.897e-08
                      Temperature (deg C)  =  25.00
                  Electrical balance (eq)  =   1.898e-16
 Percent error, 100*(Cat-|An|)/(Cat+|An|)  =   0.00
                               Iterations  =   2
                                  Total H  = 1.110124e+02
                                  Total O  = 5.550622e+01

----------------------------Distribution of species----------------------------

                                               Log       Log       Log    mole V
   Species          Molality    Activity  Molality  Activity     Gamma   cm3/mol

   OH-             1.407e-07   1.325e-07    -6.852    -6.878    -0.026     (0)  
   H+              7.988e-08   7.557e-08    -7.098    -7.122    -0.024      0.00
   H2O             5.551e+01   9.999e-01     1.744    -0.000     0.000     18.07
C(-4)         2.862e-13
   CH4             2.862e-13   2.864e-13   -12.543   -12.543     0.000     (0)  
C(4)          8.897e-08
   HCO3-           7.600e-08   7.168e-08    -7.119    -7.145    -0.025     (0)  
   CO2             1.217e-08   1.218e-08    -7.915    -7.914     0.000     (0)  
   MgHCO3+         7.055e-10   6.645e-10    -9.151    -9.178    -0.026     (0)  
   CO3-2           5.623e-11   4.448e-11   -10.250   -10.352    -0.102     (0)  
   MgCO3           3.361e-11   3.363e-11   -10.474   -10.473     0.000     (0)  
   CaHCO3+         4.129e-14   3.894e-14   -13.384   -13.410    -0.025     (0)  
   CaCO3           3.180e-15   3.182e-15   -14.498   -14.497     0.000     (0)  
Ca            5.386e-08
   Ca+2            5.386e-08   4.259e-08    -7.269    -7.371    -0.102     (0)  
   CaOH+           9.929e-14   9.351e-14   -13.003   -13.029    -0.026     (0)  
   CaHCO3+         4.129e-14   3.894e-14   -13.384   -13.410    -0.025     (0)  
   CaCO3           3.180e-15   3.182e-15   -14.498   -14.497     0.000     (0)  
Cl            2.000e-03
   Cl-             2.000e-03   1.883e-03    -2.699    -2.725    -0.026     (0)  
H(0)          7.870e-11
   H2              3.935e-11   3.938e-11   -10.405   -10.405     0.000     (0)  
Mg            1.000e-03
   Mg+2            9.999e-04   7.923e-04    -3.000    -3.101    -0.101     (0)  
   MgOH+           4.041e-08   3.806e-08    -7.393    -7.419    -0.026     (0)  
   MgHCO3+         7.055e-10   6.645e-10    -9.151    -9.178    -0.026     (0)  
   MgCO3           3.361e-11   3.363e-11   -10.474   -10.473     0.000     (0)  
O(0)          0.000e+00
   O2              0.000e+00   0.000e+00   -71.571   -71.571     0.000     (0)  

------------------------------Saturation indices-------------------------------

	Phase               SI   log IAP   log K(298 K,   1 atm)

	Aragonite        -9.39    -17.72   -8.34  CaCO3
	Calcite          -9.24    -17.72   -8.48  CaCO3
	CH4(g)           -9.70    -12.54   -2.84  CH4
	CO2(g)           -6.45     -7.91   -1.47  CO2
	Dolomite(dis)   -14.09    -31.18  -17.09  CaMg(CO3)2
	H2(g)            -7.21     35.79   43.00  H2
	O2(g)           -68.68    -71.57   -2.89  O2


------------------
End of simulation.
------------------

------------------------------------
Reading input data for simulation 6.
------------------------------------

	SOLUTION 6 #New Version 
	units mol/kgw 
	temp 25.000000 
	C(4)       1.619086246923e-07     # comp 
	Ca       9.737418747443e-08     # comp 
	Mg       9.999816467907e-04     # comp 
	Cl       1.999834012476e-03     # comp 
	pH       7.210235615751e+00 charge        # comp 
	pe       -3.628773718095e+00       # comp 
	EQUILIBRIUM_PHASES   6
	Calcite 0.000000000000e+00  0.000000000000e+00       # comp 
	END
-------------------------------------------
Beginning of initial solution calculations.
-------------------------------------------

Initial solution 6.	

-----------------------------Solution composition------------------------------

	Elements           Molality       Moles

	C(4)              1.619e-07   1.619e-07
	Ca                9.737e-08   9.737e-08
	Cl                2.000e-03   2.000e-03
	Mg                1.000e-03   1.000e-03

----------------------------Description of solution----------------------------

                                       pH  =   7.243      Charge balance
                                       pe  =  -3.629    
                        Activity of water  =   1.000
                           Ionic strength  =   3.000e-03
                       Mass of water (kg)  =   1.000e+00
                 Total alkalinity (eq/kg)  =   3.240e-07
                       Total CO2 (mol/kg)  =   1.619e-07
                      Temperature (deg C)  =  25.00
                  Electrical balance (eq)  =   1.900e-16
 Percent error, 100*(Cat-|An|)/(Cat+|An|)  =   0.00
                               Iterations  =   4
                                  Total H  = 1.110124e+02
                                  Total O  = 5.550622e+01

----------------------------Distribution of species----------------------------

                                               Log       Log       Log    mole V
   Species          Molality    Activity  Molality  Activity     Gamma   cm3/mol

   OH-             1.861e-07   1.752e-07    -6.730    -6.756    -0.026     (0)  
   H+              6.038e-08   5.713e-08    -7.219    -7.243    -0.024      0.00
   H2O             5.551e+01   9.999e-01     1.744    -0.000     0.000     18.07
C(4)          1.619e-07
   HCO3-           1.430e-07   1.349e-07    -6.845    -6.870    -0.025     (0)  
   CO2             1.732e-08   1.733e-08    -7.762    -7.761     0.000     (0)  
   MgHCO3+         1.328e-09   1.251e-09    -8.877    -8.903    -0.026     (0)  
   CO3-2           1.400e-10   1.107e-10    -9.854    -9.956    -0.102     (0)  
   MgCO3           8.366e-11   8.372e-11   -10.077   -10.077     0.000     (0)  
   CaHCO3+         1.405e-13   1.325e-13   -12.852   -12.878    -0.025     (0)  
   CaCO3           1.431e-14   1.432e-14   -13.844   -13.844     0.000     (0)  
Ca            9.737e-08
   Ca+2            9.737e-08   7.699e-08    -7.012    -7.114    -0.102     (0)  
   CaOH+           2.374e-13   2.236e-13   -12.624   -12.650    -0.026     (0)  
   CaHCO3+         1.405e-13   1.325e-13   -12.852   -12.878    -0.025     (0)  
   CaCO3           1.431e-14   1.432e-14   -13.844   -13.844     0.000     (0)  
Cl            2.000e-03
   Cl-             2.000e-03   1.883e-03    -2.699    -2.725    -0.026     (0)  
H(0)          8.357e-11
   H2              4.178e-11   4.181e-11   -10.379   -10.379     0.000     (0)  
Mg            1.000e-03
   Mg+2            9.999e-04   7.923e-04    -3.000    -3.101    -0.101     (0)  
   MgOH+           5.346e-08   5.035e-08    -7.272    -7.298    -0.026     (0)  
   MgHCO3+         1.328e-09   1.251e-09    -8.877    -8.903    -0.026     (0)  
   MgCO3           8.366e-11   8.372e-11   -10.077   -10.077     0.000     (0)  
O(0)          0.000e+00
   O2              0.000e+00   0.000e+00   -71.623   -71.623     0.000     (0)  

------------------------------Saturation indices-------------------------------

	Phase               SI   log IAP   log K(298 K,   1 atm)

	Aragonite        -8.73    -17.07   -8.34  CaCO3
	Calcite          -8.59    -17.07   -8.48  CaCO3
	CO2(g)           -6.29     -7.76   -1.47  CO2
	Dolomite(dis)   -13.04    -30.13  -17.09  CaMg(CO3)2
	H2(g)            -7.19     35.81   43.00  H2
	O2(g)           -68.73    -71.62   -2.89  O2


-----------------------------------------
Beginning of batch-reaction calculations.
-----------------------------------------

Reaction step 1.

Using solution 6.	
Using pure phase assemblage 6.	

-------------------------------Phase assemblage--------------------------------

                                                      Moles in assemblage
Phase               SI  log IAP  log K(T, P)   Initial       Final       Delta

Calcite          -8.59   -17.07     -8.48    0.000e+00           0   0.000e+00

-----------------------------Solution composition------------------------------

	Elements           Molality       Moles

	C                 1.619e-07   1.619e-07
	Ca                9.737e-08   9.737e-08
	Cl                2.000e-03   2.000e-03
	Mg                1.000e-03   1.000e-03

----------------------------Description of solution----------------------------

                                       pH  =   7.243      Charge balance
                                       pe  =  -3.620      Adjusted to redox equilibrium
                        Activity of water  =   1.000
                           Ionic strength  =   3.000e-03
                       Mass of water (kg)  =   1.000e+00
                 Total alkalinity (eq/kg)  =   3.240e-07
                       Total CO2 (mol/kg)  =   1.619e-07
                      Temperature (deg C)  =  25.00
                  Electrical balance (eq)  =   1.879e-16
 Percent error, 100*(Cat-|An|)/(Cat+|An|)  =   0.00
                               Iterations  =   2
                                  Total H  = 1.110124e+02
                                  Total O  = 5.550622e+01

----------------------------Distribution of species----------------------------

                                               Log       Log       Log    mole V
   Species          Molality    Activity  Molality  Activity     Gamma   cm3/mol

   OH-             1.861e-07   1.752e-07    -6.730    -6.756    -0.026     (0)  
   H+              6.038e-08   5.713e-08    -7.219    -7.243    -0.024      0.00
   H2O             5.551e+01   9.999e-01     1.744    -0.000     0.000     18.07
C(-4)         4.370e-13
   CH4             4.370e-13   4.373e-13   -12.359   -12.359     0.000     (0)  
C(4)          1.619e-07
   HCO3-           1.430e-07   1.349e-07    -6.845    -6.870    -0.025     (0)  
   CO2             1.732e-08   1.733e-08    -7.762    -7.761     0.000     (0)  
   MgHCO3+         1.328e-09   1.251e-09    -8.877    -8.903    -0.026     (0)  
   CO3-2           1.400e-10   1.107e-10    -9.854    -9.956    -0.102     (0)  
   MgCO3           8.366e-11   8.371e-11   -10.077   -10.077     0.000     (0)  
   CaHCO3+         1.405e-13   1.325e-13   -12.852   -12.878    -0.025     (0)  
   CaCO3           1.431e-14   1.432e-14   -13.844   -13.844     0.000     (0)  
Ca            9.737e-08
   Ca+2            9.737e-08   7.699e-08    -7.012    -7.114    -0.102     (0)  
   CaOH+           2.374e-13   2.236e-13   -12.624   -12.650    -0.026     (0)  
   CaHCO3+         1.405e-13   1.325e-13   -12.852   -12.878    -0.025     (0)  
   CaCO3           1.431e-14   1.432e-14   -13.844   -13.844     0.000     (0)  
Cl            2.000e-03
   Cl-             2.000e-03   1.883e-03    -2.699    -2.725    -0.026     (0)  
H(0)          8.011e-11
   H2              4.005e-11   4.008e-11   -10.397   -10.397     0.000     (0)  
Mg            1.000e-03
   Mg+2            9.999e-04   7.923e-04    -3.000    -3.101    -0.101     (0)  
   MgOH+           5.346e-08   5.035e-08    -7.272    -7.298    -0.026     (0)  
   MgHCO3+         1.328e-09   1.251e-09    -8.877    -8.903    -0.026     (0)  
   MgCO3           8.366e-11   8.371e-11   -10.077   -10.077     0.000     (0)  
O(0)          0.000e+00
   O2              0.000e+00   0.000e+00   -71.586   -71.586     0.000     (0)  

------------------------------Saturation indices-------------------------------

	Phase               SI   log IAP   log K(298 K,   1 atm)

	Aragonite        -8.73    -17.07   -8.34  CaCO3
	Calcite          -8.59    -17.07   -8.48  CaCO3
	CH4(g)           -9.52    -12.36   -2.84  CH4
	CO2(g)           -6.29     -7.76   -1.47  CO2
	Dolomite(dis)   -13.04    -30.13  -17.09  CaMg(CO3)2
	H2(g)            -7.20     35.79   43.00  H2
	O2(g)           -68.69    -71.59   -2.89  O2


------------------
End of simulation.
------------------

------------------------------------
Reading input data for simulation 7.
------------------------------------

	SOLUTION 7 #New Version 
	units mol/kgw 
	temp 25.000000 
	C(4)       2.825708489123e-07     # comp 
	Ca       1.687100338890e-07     # comp 
	Mg       9.999753901444e-04     # comp 
	Cl       1.999722839326e-03     # comp 
	pH       7.357271072927e+00 charge        # comp 
	pe       -3.793108217973e+00       # comp 
	EQUILIBRIUM_PHASES   7
	Calcite 0.000000000000e+00  0.000000000000e+00       # comp 
	END
-------------------------------------------
Beginning of initial solution calculations.
-------------------------------------------

Initial solution 7.	

-----------------------------Solution composition------------------------------

	Elements           Molality       Moles

	C(4)              2.826e-07   2.826e-07
	Ca                1.687e-07   1.687e-07
	Cl                2.000e-03   2.000e-03
	Mg                1.000e-03   1.000e-03

----------------------------Description of solution----------------------------

                                       pH  =   7.402      Charge balance
                                       pe  =  -3.793    
                        Activity of water  =   1.000
                           Ionic strength  =   3.000e-03
                       Mass of water (kg)  =   1.000e+00
                 Total alkalinity (eq/kg)  =   5.654e-07
                       Total CO2 (mol/kg)  =   2.826e-07
                      Temperature (deg C)  =  25.00
                  Electrical balance (eq)  =   1.908e-16
 Percent error, 100*(Cat-|An|)/(Cat+|An|)  =   0.00
                               Iterations  =   4
                                  Total H  = 1.110124e+02
                                  Total O  = 5.550622e+01

----------------------------Distribution of species----------------------------

                                               Log       Log       Log    mole V
   Species          Molality    Activity  Molality  Activity     Gamma   cm3/mol

   OH-             2.686e-07   2.528e-07    -6.571    -6.597    -0.026     (0)  
   H+              4.185e-08   3.960e-08    -7.378    -7.402    -0.024      0.00
   H2O             5.551e+01   9.999e-01     1.744    -0.000     0.000     18.07
C(4)          2.826e-07
   HCO3-           2.580e-07   2.433e-07    -6.588    -6.614    -0.025     (0)  
   CO2             2.164e-08   2.166e-08    -7.665    -7.664     0.000     (0)  
   MgHCO3+         2.394e-09   2.255e-09    -8.621    -8.647    -0.026     (0)  
   CO3-2           3.643e-10   2.881e-10    -9.439    -9.540    -0.102     (0)  
   MgCO3           2.177e-10   2.178e-10    -9.662    -9.662     0.000     (0)  
   CaHCO3+         4.390e-13   4.140e-13   -12.358   -12.383    -0.025     (0)  
   CaCO3           6.451e-14   6.456e-14   -13.190   -13.190     0.000     (0)  
Ca            1.687e-07
   Ca+2            1.687e-07   1.334e-07    -6.773    -6.875    -0.102     (0)  
   CaOH+           5.935e-13   5.590e-13   -12.227   -12.253    -0.026     (0)  
   CaHCO3+         4.390e-13   4.140e-13   -12.358   -12.383    -0.025     (0)  
   CaCO3           6.451e-14   6.456e-14   -13.190   -13.190     0.000     (0)  
Cl            2.000e-03
   Cl-             2.000e-03   1.882e-03    -2.699    -2.725    -0.026     (0)  
H(0)          8.556e-11
   H2              4.278e-11   4.281e-11   -10.369   -10.368     0.000     (0)  
Mg            1.000e-03
   Mg+2            9.999e-04   7.923e-04    -3.000    -3.101    -0.101     (0)  
   MgOH+           7.713e-08   7.264e-08    -7.113    -7.139    -0.026     (0)  
   MgHCO3+         2.394e-09   2.255e-09    -8.621    -8.647    -0.026     (0)  
   MgCO3           2.177e-10   2.178e-10    -9.662    -9.662     0.000     (0)  
O(0)          0.000e+00
   O2              0.000e+00   0.000e+00   -71.643   -71.643     0.000     (0)  

------------------------------Saturation indices-------------------------------

	Phase               SI   log IAP   log K(298 K,   1 atm)

	Aragonite        -8.08    -16.42   -8.34  CaCO3
	Calcite          -7.94    -16.42   -8.48  CaCO3
	CO2(g)           -6.20     -7.66   -1.47  CO2
	Dolomite(dis)   -11.97    -29.06  -17.09  CaMg(CO3)2
	H2(g)            -7.18     35.82   43.00  H2
	O2(g)           -68.75    -71.64   -2.89  O2


-----------------------------------------
Beginning of batch-reaction calculations.
-----------------------------------------

Reaction step 1.

Using solution 7.	
Using pure phase assemblage 7.	

-------------------------------Phase assemblage--------------------------------

                                                      Moles in assemblage
Phase               SI  log IAP  log K(T, P)   Initial       Final       Delta

Calcite          -7.94   -16.42     -8.48    0.000e+00           0   0.000e+00

-----------------------------Solution composition------------------------------

	Elements           Molality       Moles

	C                 2.826e-07   2.826e-07
	Ca                1.687e-07   1.687e-07
	Cl                2.000e-03   2.000e-03
	Mg                1.000e-03   1.000e-03

----------------------------Description of solution----------------------------

                                       pH  =   7.402      Charge balance
                                       pe  =  -3.781      Adjusted to redox equilibrium
                        Activity of water  =   1.000
                           Ionic strength  =   3.000e-03
                       Mass of water (kg)  =   1.000e+00
                 Total alkalinity (eq/kg)  =   5.654e-07
                       Total CO2 (mol/kg)  =   2.826e-07
                      Temperature (deg C)  =  25.00
                  Electrical balance (eq)  =   1.899e-16
 Percent error, 100*(Cat-|An|)/(Cat+|An|)  =   0.00
                               Iterations  =   2
                                  Total H  = 1.110124e+02
                                  Total O  = 5.550622e+01

----------------------------Distribution of species----------------------------

                                               Log       Log       Log    mole V
   Species          Molality    Activity  Molality  Activity     Gamma   cm3/mol

   OH-             2.686e-07   2.528e-07    -6.571    -6.597    -0.026     (0)  
   H+              4.185e-08   3.960e-08    -7.378    -7.402    -0.024      0.00
   H2O             5.551e+01   9.999e-01     1.744    -0.000     0.000     18.07
C(-4)         5.709e-13
   CH4             5.709e-13   5.713e-13   -12.243   -12.243     0.000     (0)  
C(4)          2.826e-07
   HCO3-           2.580e-07   2.433e-07    -6.588    -6.614    -0.025     (0)  
   CO2             2.164e-08   2.166e-08    -7.665    -7.664     0.000     (0)  
   MgHCO3+         2.394e-09   2.255e-09    -8.621    -8.647    -0.026     (0)  
   CO3-2           3.643e-10   2.881e-10    -9.439    -9.540    -0.102     (0)  
   MgCO3           2.177e-10   2.178e-10    -9.662    -9.662     0.000     (0)  
   CaHCO3+         4.390e-13   4.140e-13   -12.358   -12.383    -0.025     (0)  
   CaCO3           6.451e-14   6.456e-14   -13.190   -13.190     0.000     (0)  
Ca            1.687e-07
   Ca+2            1.687e-07   1.334e-07    -6.773    -6.875    -0.102     (0)  
   CaOH+           5.935e-13   5.590e-13   -12.227   -12.253    -0.026     (0)  
   CaHCO3+         4.390e-13   4.140e-13   -12.358   -12.383    -0.025     (0)  
   CaCO3           6.451e-14   6.456e-14   -13.190   -13.190     0.000     (0)  
Cl            2.000e-03
   Cl-             2.000e-03   1.882e-03    -2.699    -2.725    -0.026     (0)  
H(0)          8.099e-11
   H2              4.050e-11   4.053e-11   -10.393   -10.392     0.000     (0)  
Mg            1.000e-03
   Mg+2            9.999e-04   7.923e-04    -3.000    -3.101    -0.101     (0)  
   MgOH+           7.713e-08   7.264e-08    -7.113    -7.139    -0.026     (0)  
   MgHCO3+         2.394e-09   2.255e-09    -8.621    -8.647    -0.026     (0)  
   MgCO3           2.177e-10   2.178e-10    -9.662    -9.662     0.000     (0)  
O(0)          0.000e+00
   O2              0.000e+00   0.000e+00   -71.596   -71.595     0.000     (0)  

------------------------------Saturation indices-------------------------------

	Phase               SI   log IAP   log K(298 K,   1 atm)

	Aragonite        -8.08    -16.42   -8.34  CaCO3
	Calcite          -7.94    -16.42   -8.48  CaCO3
	CH4(g)           -9.40    -12.24   -2.84  CH4
	CO2(g)           -6.20     -7.66   -1.47  CO2
	Dolomite(dis)   -11.97    -29.06  -17.09  CaMg(CO3)2
	H2(g)            -7.20     35.80   43.00  H2
	O2(g)           -68.70    -71.60   -2.89  O2


------------------
End of simulation.
------------------

------------------------------------
Reading input data for simulation 8.
------------------------------------

	SOLUTION 8 #New Version 
	units mol/kgw 
	temp 25.000000 
	C(4)       4.790580547223e-07     # comp 
	Ca       2.837318366646e-07     # comp 
	Mg       9.999724813847e-04     # comp 
	Cl       1.999554083734e-03     # comp 
	pH       7.532969232341e+00 charge        # comp 
	pe       -3.980889256146e+00       # comp 
	EQUILIBRIUM_PHASES   8
	Calcite 0.000000000000e+00  0.000000000000e+00       # comp 
	END
-------------------------------------------
Beginning of initial solution calculations.
-------------------------------------------

Initial solution 8.	

-----------------------------Solution composition------------------------------

	Elements           Molality       Moles

	C(4)              4.791e-07   4.791e-07
	Ca                2.837e-07   2.837e-07
	Cl                2.000e-03   2.000e-03
	Mg                1.000e-03   1.000e-03

----------------------------Description of solution----------------------------

                                       pH  =   7.588      Charge balance
                                       pe  =  -3.981    
                        Activity of water  =   1.000
                           Ionic strength  =   3.001e-03
                       Mass of water (kg)  =   1.000e+00
                 Total alkalinity (eq/kg)  =   9.583e-07
                       Total CO2 (mol/kg)  =   4.791e-07
                      Temperature (deg C)  =  25.00
                  Electrical balance (eq)  =   1.877e-16
 Percent error, 100*(Cat-|An|)/(Cat+|An|)  =   0.00
                               Iterations  =   4
                                  Total H  = 1.110124e+02
                                  Total O  = 5.550622e+01

----------------------------Distribution of species----------------------------

                                               Log       Log       Log    mole V
   Species          Molality    Activity  Molality  Activity     Gamma   cm3/mol

   OH-             4.115e-07   3.873e-07    -6.386    -6.412    -0.026     (0)  
   H+              2.732e-08   2.585e-08    -7.564    -7.588    -0.024      0.00
   H2O             5.551e+01   9.999e-01     1.744    -0.000     0.000     18.07
C(4)          4.791e-07
   HCO3-           4.488e-07   4.232e-07    -6.348    -6.373    -0.025     (0)  
   CO2             2.458e-08   2.459e-08    -7.609    -7.609     0.000     (0)  
   MgHCO3+         4.165e-09   3.923e-09    -8.380    -8.406    -0.026     (0)  
   CO3-2           9.709e-10   7.679e-10    -9.013    -9.115    -0.102     (0)  
   MgCO3           5.801e-10   5.805e-10    -9.236    -9.236     0.000     (0)  
   CaHCO3+         1.284e-12   1.211e-12   -11.891   -11.917    -0.025     (0)  
   CaCO3           2.892e-13   2.894e-13   -12.539   -12.539     0.000     (0)  
Ca            2.837e-07
   Ca+2            2.837e-07   2.243e-07    -6.547    -6.649    -0.102     (0)  
   CaOH+           1.529e-12   1.440e-12   -11.816   -11.842    -0.026     (0)  
   CaHCO3+         1.284e-12   1.211e-12   -11.891   -11.917    -0.025     (0)  
   CaCO3           2.892e-13   2.894e-13   -12.539   -12.539     0.000     (0)  
Cl            2.000e-03
   Cl-             2.000e-03   1.882e-03    -2.699    -2.725    -0.026     (0)  
H(0)          8.656e-11
   H2              4.328e-11   4.331e-11   -10.364   -10.363     0.000     (0)  
Mg            1.000e-03
   Mg+2            9.998e-04   7.922e-04    -3.000    -3.101    -0.101     (0)  
   MgOH+           1.182e-07   1.113e-07    -6.928    -6.954    -0.026     (0)  
   MgHCO3+         4.165e-09   3.923e-09    -8.380    -8.406    -0.026     (0)  
   MgCO3           5.801e-10   5.805e-10    -9.236    -9.236     0.000     (0)  
O(0)          0.000e+00
   O2              0.000e+00   0.000e+00   -71.653   -71.653     0.000     (0)  

------------------------------Saturation indices-------------------------------

	Phase               SI   log IAP   log K(298 K,   1 atm)

	Aragonite        -7.43    -15.76   -8.34  CaCO3
	Calcite          -7.28    -15.76   -8.48  CaCO3
	CO2(g)           -6.14     -7.61   -1.47  CO2
	Dolomite(dis)   -10.89    -27.98  -17.09  CaMg(CO3)2
	H2(g)            -7.17     35.83   43.00  H2
	O2(g)           -68.76    -71.65   -2.89  O2


-----------------------------------------
Beginning of batch-reaction calculations.
-----------------------------------------

Reaction step 1.

Using solution 8.	
Using pure phase assemblage 8.	

-------------------------------Phase assemblage--------------------------------

                                                      Moles in assemblage
Phase               SI  log IAP  log K(T, P)   Initial       Final       Delta

Calcite          -7.28   -15.76     -8.48    0.000e+00           0   0.000e+00

-----------------------------Solution composition------------------------------

	Elements           Molality       Moles

	C                 4.791e-07   4.791e-07
	Ca                2.837e-07   2.837e-07
	Cl                2.000e-03   2.000e-03
	Mg                1.000e-03   1.000e-03

----------------------------Description of solution----------------------------

                                       pH  =   7.588      Charge balance
                                       pe  =  -3.967      Adjusted to redox equilibrium
                        Activity of water  =   1.000
                           Ionic strength  =   3.001e-03
                       Mass of water (kg)  =   1.000e+00
                 Total alkalinity (eq/kg)  =   9.583e-07
                       Total CO2 (mol/kg)  =   4.791e-07
                      Temperature (deg C)  =  25.00
                  Electrical balance (eq)  =   1.894e-16
 Percent error, 100*(Cat-|An|)/(Cat+|An|)  =   0.00
                               Iterations  =   2
                                  Total H  = 1.110124e+02
                                  Total O  = 5.550622e+01

----------------------------Distribution of species----------------------------

                                               Log       Log       Log    mole V
   Species          Molality    Activity  Molality  Activity     Gamma   cm3/mol

   OH-             4.115e-07   3.873e-07    -6.386    -6.412    -0.026     (0)  
   H+              2.732e-08   2.585e-08    -7.564    -7.588    -0.024      0.00
   H2O             5.551e+01   9.999e-01     1.744    -0.000     0.000     18.07
C(-4)         6.579e-13
   CH4             6.579e-13   6.583e-13   -12.182   -12.182     0.000     (0)  
C(4)          4.791e-07
   HCO3-           4.488e-07   4.232e-07    -6.348    -6.373    -0.025     (0)  
   CO2             2.458e-08   2.459e-08    -7.609    -7.609     0.000     (0)  
   MgHCO3+         4.165e-09   3.923e-09    -8.380    -8.406    -0.026     (0)  
   CO3-2           9.709e-10   7.679e-10    -9.013    -9.115    -0.102     (0)  
   MgCO3           5.801e-10   5.805e-10    -9.236    -9.236     0.000     (0)  
   CaHCO3+         1.284e-12   1.211e-12   -11.891   -11.917    -0.025     (0)  
   CaCO3           2.892e-13   2.894e-13   -12.539   -12.539     0.000     (0)  
Ca            2.837e-07
   Ca+2            2.837e-07   2.243e-07    -6.547    -6.649    -0.102     (0)  
   CaOH+           1.529e-12   1.440e-12   -11.816   -11.842    -0.026     (0)  
   CaHCO3+         1.284e-12   1.211e-12   -11.891   -11.917    -0.025     (0)  
   CaCO3           2.892e-13   2.894e-13   -12.539   -12.539     0.000     (0)  
Cl            2.000e-03
   Cl-             2.000e-03   1.882e-03    -2.699    -2.725    -0.026     (0)  
H(0)          8.129e-11
   H2              4.065e-11   4.067e-11   -10.391   -10.391     0.000     (0)  
Mg            1.000e-03
   Mg+2            9.998e-04   7.922e-04    -3.000    -3.101    -0.101     (0)  
   MgOH+           1.182e-07   1.113e-07    -6.928    -6.954    -0.026     (0)  
   MgHCO3+         4.165e-09   3.923e-09    -8.380    -8.406    -0.026     (0)  
   MgCO3           5.801e-10   5.805e-10    -9.236    -9.236     0.000     (0)  
O(0)          0.000e+00
   O2              0.000e+00   0.000e+00   -71.599   -71.599     0.000     (0)  

------------------------------Saturation indices-------------------------------

	Phase               SI   log IAP   log K(298 K,   1 atm)

	Aragonite        -7.43    -15.76   -8.34  CaCO3
	Calcite          -7.28    -15.76   -8.48  CaCO3
	CH4(g)           -9.34    -12.18   -2.84  CH4
	CO2(g)           -6.14     -7.61   -1.47  CO2
	Dolomite(dis)   -10.89    -27.98  -17.09  CaMg(CO3)2
	H2(g)            -7.20     35.80   43.00  H2
	O2(g)           -68.71    -71.60   -2.89  O2


------------------
End of simulation.
------------------

------------------------------------
Reading input data for simulation 9.
------------------------------------

	SOLUTION 9 #New Version 
	units mol/kgw 
	temp 25.000000 
	C(4)       7.950335885199e-07     # comp 
	Ca       4.667616036965e-07     # comp 
	Mg       9.999801257730e-04     # comp 
	Cl       1.999303474447e-03     # comp 
	pH       7.725847462158e+00 charge        # comp 
	pe       -4.179074133672e+00       # comp 
	EQUILIBRIUM_PHASES   9
	Calcite 0.000000000000e+00  0.000000000000e+00       # comp 
	END
-------------------------------------------
Beginning of initial solution calculations.
-------------------------------------------

Initial solution 9.	

-----------------------------Solution composition------------------------------

	Elements           Molality       Moles

	C(4)              7.950e-07   7.950e-07
	Ca                4.668e-07   4.668e-07
	Cl                1.999e-03   1.999e-03
	Mg                1.000e-03   1.000e-03

----------------------------Description of solution----------------------------

                                       pH  =   7.785      Charge balance
                                       pe  =  -4.179    
                        Activity of water  =   1.000
                           Ionic strength  =   3.001e-03
                       Mass of water (kg)  =   1.000e+00
                 Total alkalinity (eq/kg)  =   1.590e-06
                       Total CO2 (mol/kg)  =   7.950e-07
                      Temperature (deg C)  =  25.00
                  Electrical balance (eq)  =   1.918e-16
 Percent error, 100*(Cat-|An|)/(Cat+|An|)  =   0.00
                               Iterations  =   4
                                  Total H  = 1.110124e+02
                                  Total O  = 5.550622e+01

----------------------------Distribution of species----------------------------

                                               Log       Log       Log    mole V
   Species          Molality    Activity  Molality  Activity     Gamma   cm3/mol

   OH-             6.486e-07   6.105e-07    -6.188    -6.214    -0.026     (0)  
   H+              1.733e-08   1.640e-08    -7.761    -7.785    -0.024      0.00
   H2O             5.551e+01   9.999e-01     1.744    -0.000     0.000     18.07
C(4)          7.950e-07
   HCO3-           7.575e-07   7.144e-07    -6.121    -6.146    -0.025     (0)  
   CO2             2.632e-08   2.634e-08    -7.580    -7.579     0.000     (0)  
   MgHCO3+         7.031e-09   6.622e-09    -8.153    -8.179    -0.026     (0)  
   CO3-2           2.583e-09   2.043e-09    -8.588    -8.690    -0.102     (0)  
   MgCO3           1.543e-09   1.544e-09    -8.812    -8.811     0.000     (0)  
   CaHCO3+         3.567e-12   3.364e-12   -11.448   -11.473    -0.025     (0)  
   CaCO3           1.266e-12   1.267e-12   -11.898   -11.897     0.000     (0)  
Ca            4.668e-07
   Ca+2            4.668e-07   3.690e-07    -6.331    -6.433    -0.102     (0)  
   CaOH+           3.965e-12   3.735e-12   -11.402   -11.428    -0.026     (0)  
   CaHCO3+         3.567e-12   3.364e-12   -11.448   -11.473    -0.025     (0)  
   CaCO3           1.266e-12   1.267e-12   -11.898   -11.897     0.000     (0)  
Cl            1.999e-03
   Cl-             1.999e-03   1.882e-03    -2.699    -2.725    -0.026     (0)  
H(0)          8.678e-11
   H2              4.339e-11   4.342e-11   -10.363   -10.362     0.000     (0)  
Mg            1.000e-03
   Mg+2            9.998e-04   7.922e-04    -3.000    -3.101    -0.101     (0)  
   MgOH+           1.862e-07   1.754e-07    -6.730    -6.756    -0.026     (0)  
   MgHCO3+         7.031e-09   6.622e-09    -8.153    -8.179    -0.026     (0)  
   MgCO3           1.543e-09   1.544e-09    -8.812    -8.811     0.000     (0)  
O(0)          0.000e+00
   O2              0.000e+00   0.000e+00   -71.656   -71.655     0.000     (0)  

------------------------------Saturation indices-------------------------------

	Phase               SI   log IAP   log K(298 K,   1 atm)

	Aragonite        -6.79    -15.12   -8.34  CaCO3
	Calcite          -6.64    -15.12   -8.48  CaCO3
	CO2(g)           -6.11     -7.58   -1.47  CO2
	Dolomite(dis)    -9.82    -26.91  -17.09  CaMg(CO3)2
	H2(g)            -7.17     35.83   43.00  H2
	O2(g)           -68.76    -71.66   -2.89  O2


-----------------------------------------
Beginning of batch-reaction calculations.
-----------------------------------------

Reaction step 1.

Using solution 9.	
Using pure phase assemblage 9.	

-------------------------------Phase assemblage--------------------------------

                                                      Moles in assemblage
Phase               SI  log IAP  log K(T, P)   Initial       Final       Delta

Calcite          -6.64   -15.12     -8.48    0.000e+00           0   0.000e+00

-----------------------------Solution composition------------------------------

	Elements           Molality       Moles

	C                 7.950e-07   7.950e-07
	Ca                4.668e-07   4.668e-07
	Cl                1.999e-03   1.999e-03
	Mg                1.000e-03   1.000e-03

----------------------------Description of solution----------------------------

                                       pH  =   7.785      Charge balance
                                       pe  =  -4.165      Adjusted to redox equilibrium
                        Activity of water  =   1.000
                           Ionic strength  =   3.001e-03
                       Mass of water (kg)  =   1.000e+00
                 Total alkalinity (eq/kg)  =   1.590e-06
                       Total CO2 (mol/kg)  =   7.950e-07
                      Temperature (deg C)  =  25.00
                  Electrical balance (eq)  =   1.911e-16
 Percent error, 100*(Cat-|An|)/(Cat+|An|)  =   0.00
                               Iterations  =   2
                                  Total H  = 1.110124e+02
                                  Total O  = 5.550622e+01

----------------------------Distribution of species----------------------------

                                               Log       Log       Log    mole V
   Species          Molality    Activity  Molality  Activity     Gamma   cm3/mol

   OH-             6.486e-07   6.105e-07    -6.188    -6.214    -0.026     (0)  
   H+              1.733e-08   1.640e-08    -7.761    -7.785    -0.024      0.00
   H2O             5.551e+01   9.999e-01     1.744    -0.000     0.000     18.07
C(-4)         7.008e-13
   CH4             7.008e-13   7.013e-13   -12.154   -12.154     0.000     (0)  
C(4)          7.950e-07
   HCO3-           7.575e-07   7.144e-07    -6.121    -6.146    -0.025     (0)  
   CO2             2.632e-08   2.634e-08    -7.580    -7.579     0.000     (0)  
   MgHCO3+         7.031e-09   6.622e-09    -8.153    -8.179    -0.026     (0)  
   CO3-2           2.583e-09   2.043e-09    -8.588    -8.690    -0.102     (0)  
   MgCO3           1.543e-09   1.544e-09    -8.812    -8.811     0.000     (0)  
   CaHCO3+         3.567e-12   3.363e-12   -11.448   -11.473    -0.025     (0)  
   CaCO3           1.266e-12   1.267e-12   -11.898   -11.897     0.000     (0)  
Ca            4.668e-07
   Ca+2            4.668e-07   3.690e-07    -6.331    -6.433    -0.102     (0)  
   CaOH+           3.965e-12   3.735e-12   -11.402   -11.428    -0.026     (0)  
   CaHCO3+         3.567e-12   3.363e-12   -11.448   -11.473    -0.025     (0)  
   CaCO3           1.266e-12   1.267e-12   -11.898   -11.897     0.000     (0)  
Cl            1.999e-03
   Cl-             1.999e-03   1.882e-03    -2.699    -2.725    -0.026     (0)  
H(0)          8.118e-11
   H2              4.059e-11   4.062e-11   -10.392   -10.391     0.000     (0)  
Mg            1.000e-03
   Mg+2            9.998e-04   7.922e-04    -3.000    -3.101    -0.101     (0)  
   MgOH+           1.862e-07   1.754e-07    -6.730    -6.756    -0.026     (0)  
   MgHCO3+         7.031e-09   6.622e-09    -8.153    -8.179    -0.026     (0)  
   MgCO3           1.543e-09   1.544e-09    -8.812    -8.811     0.000     (0)  
O(0)          0.000e+00
   O2              0.000e+00   0.000e+00   -71.598   -71.598     0.000     (0)  

------------------------------Saturation indices-------------------------------

	Phase               SI   log IAP   log K(298 K,   1 atm)

	Aragonite        -6.79    -15.12   -8.34  CaCO3
	Calcite          -6.64    -15.12   -8.48  CaCO3
	CH4(g)           -9.31    -12.15   -2.84  CH4
	CO2(g)           -6.11     -7.58   -1.47  CO2
	Dolomite(dis)    -9.82    -26.91  -17.09  CaMg(CO3)2
	H2(g)            -7.20     35.80   43.00  H2
	O2(g)           -68.71    -71.60   -2.89  O2


------------------
End of simulation.
------------------

-------------------------------------
Reading input data for simulation 10.
-------------------------------------

	SOLUTION 10 #New Version 
	units mol/kgw 
	temp 25.000000 
	C(4)       1.298080621002e-06     # comp 
	Ca       7.549619899917e-07     # comp 
	Mg       1.000012492829e-03     # comp 
	Cl       1.998938510705e-03     # comp 
	pH       7.925526966696e+00 charge        # comp 
	pe       -4.379742055234e+00       # comp 
	EQUILIBRIUM_PHASES   10
	Calcite 0.000000000000e+00  0.000000000000e+00       # comp 
	END
-------------------------------------------
Beginning of initial solution calculations.
-------------------------------------------

Initial solution 10.	

-----------------------------Solution composition------------------------------

	Elements           Molality       Moles

	C(4)              1.298e-06   1.298e-06
	Ca                7.550e-07   7.550e-07
	Cl                1.999e-03   1.999e-03
	Mg                1.000e-03   1.000e-03

----------------------------Description of solution----------------------------

                                       pH  =   7.986      Charge balance
[...]
   H2O             5.551e+01   1.000e+00     1.744    -0.000     0.000     18.07
C(-4)         1.460e-29
   CH4             1.460e-29   1.460e-29   -28.836   -28.836     0.000     (0)  
C(4)          1.227e-04
   HCO3-           8.316e-05   8.133e-05    -4.080    -4.090    -0.010     (0)  
   CO3-2           3.386e-05   3.098e-05    -4.470    -4.509    -0.039     (0)  
   CaCO3           5.564e-06   5.565e-06    -5.255    -5.255     0.000     (0)  
   CaHCO3+         1.134e-07   1.109e-07    -6.945    -6.955    -0.010     (0)  
   CO2             2.251e-08   2.251e-08    -7.648    -7.648     0.000     (0)  
   MgCO3           1.362e-13   1.362e-13   -12.866   -12.866     0.000     (0)  
   MgHCO3+         4.484e-15   4.384e-15   -14.348   -14.358    -0.010     (0)  
Ca            1.227e-04
   Ca+2            1.169e-04   1.069e-04    -3.932    -3.971    -0.039     (0)  
   CaCO3           5.564e-06   5.565e-06    -5.255    -5.255     0.000     (0)  
   CaOH+           1.474e-07   1.441e-07    -6.831    -6.841    -0.010     (0)  
   CaHCO3+         1.134e-07   1.109e-07    -6.945    -6.955    -0.010     (0)  
Cl            1.139e-11
   Cl-             1.139e-11   1.114e-11   -10.943   -10.953    -0.010     (0)  
H(0)          5.707e-15
   H2              2.854e-15   2.854e-15   -14.545   -14.545     0.000     (0)  
Mg            5.315e-12
   Mg+2            5.035e-12   4.607e-12   -11.298   -11.337    -0.039     (0)  
   MgOH+           1.390e-13   1.359e-13   -12.857   -12.867    -0.010     (0)  
   MgCO3           1.362e-13   1.362e-13   -12.866   -12.866     0.000     (0)  
   MgHCO3+         4.484e-15   4.384e-15   -14.348   -14.358    -0.010     (0)  
O(0)          0.000e+00
   O2              0.000e+00   0.000e+00   -63.291   -63.291     0.000     (0)  

------------------------------Saturation indices-------------------------------

	Phase               SI   log IAP   log K(298 K,   1 atm)

	Aragonite        -0.14     -8.48   -8.34  CaCO3
	Calcite           0.00     -8.48   -8.48  CaCO3
	CH4(g)          -25.99    -28.84   -2.84  CH4
	CO2(g)           -6.18     -7.65   -1.47  CO2
	Dolomite(dis)    -7.24    -24.33  -17.09  CaMg(CO3)2
	H2(g)           -11.35     31.65   43.00  H2
	O2(g)           -60.40    -63.29   -2.89  O2


------------------
End of simulation.
------------------

--------------------------------------
Reading input data for simulation 100.
--------------------------------------

	SOLUTION 100 #New Version 
	units mol/kgw 
	temp 25.000000 
	C(4)       1.227217037958e-04     # comp 
	Ca       1.227217042927e-04     # comp 
	Mg       3.484350867287e-12     # comp 
	Cl       6.962592313111e-12     # comp 
	pH       9.909703054705e+00 charge        # comp 
	pe       -4.734712371213e+00       # comp 
	EQUILIBRIUM_PHASES   100
	Calcite 0.000000000000e+00  1.220004999996e-04       # comp 
	END
-------------------------------------------
Beginning of initial solution calculations.
-------------------------------------------

Initial solution 100.	

-----------------------------Solution composition------------------------------

	Elements           Molality       Moles

	C(4)              1.227e-04   1.227e-04
	Ca                1.227e-04   1.227e-04
	Cl                6.963e-12   6.963e-12
	Mg                3.484e-12   3.484e-12

----------------------------Description of solution----------------------------

                                       pH  =   9.910      Charge balance
                                       pe  =  -4.735    
                        Activity of water  =   1.000
                           Ionic strength  =   3.848e-04
                       Mass of water (kg)  =   1.000e+00
                 Total alkalinity (eq/kg)  =   2.454e-04
                       Total CO2 (mol/kg)  =   1.227e-04
                      Temperature (deg C)  =  25.00
                  Electrical balance (eq)  =   2.033e-19
 Percent error, 100*(Cat-|An|)/(Cat+|An|)  =   0.00
                               Iterations  =   4
                                  Total H  = 1.110126e+02
                                  Total O  = 5.550667e+01

----------------------------Distribution of species----------------------------

                                               Log       Log       Log    mole V
   Species          Molality    Activity  Molality  Activity     Gamma   cm3/mol

   OH-             8.317e-05   8.131e-05    -4.080    -4.090    -0.010     (0)  
   H+              1.258e-10   1.231e-10    -9.900    -9.910    -0.009      0.00
   H2O             5.551e+01   1.000e+00     1.744    -0.000     0.000     18.07
C(4)          1.227e-04
   HCO3-           8.316e-05   8.133e-05    -4.080    -4.090    -0.010     (0)  
   CO3-2           3.386e-05   3.098e-05    -4.470    -4.509    -0.039     (0)  
   CaCO3           5.564e-06   5.565e-06    -5.255    -5.255     0.000     (0)  
   CaHCO3+         1.134e-07   1.109e-07    -6.945    -6.955    -0.010     (0)  
   CO2             2.251e-08   2.251e-08    -7.648    -7.648     0.000     (0)  
   MgCO3           8.928e-14   8.929e-14   -13.049   -13.049     0.000     (0)  
   MgHCO3+         2.939e-15   2.874e-15   -14.532   -14.541    -0.010     (0)  
Ca            1.227e-04
   Ca+2            1.169e-04   1.069e-04    -3.932    -3.971    -0.039     (0)  
   CaCO3           5.564e-06   5.565e-06    -5.255    -5.255     0.000     (0)  
   CaOH+           1.474e-07   1.441e-07    -6.831    -6.841    -0.010     (0)  
   CaHCO3+         1.134e-07   1.109e-07    -6.945    -6.955    -0.010     (0)  
Cl            6.963e-12
   Cl-             6.963e-12   6.808e-12   -11.157   -11.167    -0.010     (0)  
H(0)          6.324e-14
   H2              3.162e-14   3.162e-14   -13.500   -13.500     0.000     (0)  
Mg            3.484e-12
   Mg+2            3.301e-12   3.020e-12   -11.481   -11.520    -0.039     (0)  
   MgOH+           9.110e-14   8.908e-14   -13.040   -13.050    -0.010     (0)  
   MgCO3           8.928e-14   8.929e-14   -13.049   -13.049     0.000     (0)  
   MgHCO3+         2.939e-15   2.874e-15   -14.532   -14.541    -0.010     (0)  
O(0)          0.000e+00
   O2              0.000e+00   0.000e+00   -65.380   -65.380     0.000     (0)  

------------------------------Saturation indices-------------------------------

	Phase               SI   log IAP   log K(298 K,   1 atm)

	Aragonite        -0.14     -8.48   -8.34  CaCO3
	Calcite          -0.00     -8.48   -8.48  CaCO3
	CO2(g)           -6.18     -7.65   -1.47  CO2
	Dolomite(dis)    -7.42    -24.51  -17.09  CaMg(CO3)2
	H2(g)           -10.31     32.69   43.00  H2
	O2(g)           -62.49    -65.38   -2.89  O2


-----------------------------------------
Beginning of batch-reaction calculations.
-----------------------------------------

Reaction step 1.

Using solution 100.	
Using pure phase assemblage 100.	

-------------------------------Phase assemblage--------------------------------

                                                      Moles in assemblage
Phase               SI  log IAP  log K(T, P)   Initial       Final       Delta

Calcite           0.00    -8.48     -8.48    1.220e-04   1.220e-04  -1.620e-17

-----------------------------Solution composition------------------------------

	Elements           Molality       Moles

	C                 1.227e-04   1.227e-04
	Ca                1.227e-04   1.227e-04
	Cl                6.963e-12   6.963e-12
	Mg                3.484e-12   3.484e-12

----------------------------Description of solution----------------------------

                                       pH  =   9.910      Charge balance
                                       pe  =  -4.717      Adjusted to redox equilibrium
                        Activity of water  =   1.000
                           Ionic strength  =   3.848e-04
                       Mass of water (kg)  =   1.000e+00
                 Total alkalinity (eq/kg)  =   2.454e-04
                       Total CO2 (mol/kg)  =   1.227e-04
                      Temperature (deg C)  =  25.00
                  Electrical balance (eq)  =  -5.557e-19
 Percent error, 100*(Cat-|An|)/(Cat+|An|)  =  -0.00
                               Iterations  =   1
                                  Total H  = 1.110126e+02
                                  Total O  = 5.550667e+01

----------------------------Distribution of species----------------------------

                                               Log       Log       Log    mole V
   Species          Molality    Activity  Molality  Activity     Gamma   cm3/mol

   OH-             8.317e-05   8.131e-05    -4.080    -4.090    -0.010     (0)  
   H+              1.258e-10   1.231e-10    -9.900    -9.910    -0.009      0.00
   H2O             5.551e+01   1.000e+00     1.744    -0.000     0.000     18.07
C(-4)         1.585e-25
   CH4             1.585e-25   1.585e-25   -24.800   -24.800     0.000     (0)  
C(4)          1.227e-04
   HCO3-           8.316e-05   8.133e-05    -4.080    -4.090    -0.010     (0)  
   CO3-2           3.386e-05   3.098e-05    -4.470    -4.509    -0.039     (0)  
   CaCO3           5.564e-06   5.565e-06    -5.255    -5.255     0.000     (0)  
   CaHCO3+         1.134e-07   1.109e-07    -6.945    -6.955    -0.010     (0)  
   CO2             2.251e-08   2.251e-08    -7.648    -7.648     0.000     (0)  
   MgCO3           8.928e-14   8.929e-14   -13.049   -13.049     0.000     (0)  
   MgHCO3+         2.939e-15   2.874e-15   -14.532   -14.541    -0.010     (0)  
Ca            1.227e-04
   Ca+2            1.169e-04   1.069e-04    -3.932    -3.971    -0.039     (0)  
   CaCO3           5.564e-06   5.565e-06    -5.255    -5.255     0.000     (0)  
   CaOH+           1.474e-07   1.441e-07    -6.831    -6.841    -0.010     (0)  
   CaHCO3+         1.134e-07   1.109e-07    -6.945    -6.955    -0.010     (0)  
Cl            6.963e-12
   Cl-             6.963e-12   6.808e-12   -11.157   -11.167    -0.010     (0)  
H(0)          5.825e-14
   H2              2.913e-14   2.913e-14   -13.536   -13.536     0.000     (0)  
Mg            3.484e-12
   Mg+2            3.301e-12   3.020e-12   -11.481   -11.520    -0.039     (0)  
   MgOH+           9.110e-14   8.908e-14   -13.040   -13.050    -0.010     (0)  
   MgCO3           8.928e-14   8.929e-14   -13.049   -13.049     0.000     (0)  
   MgHCO3+         2.939e-15   2.874e-15   -14.532   -14.541    -0.010     (0)  
O(0)          0.000e+00
   O2              0.000e+00   0.000e+00   -65.309   -65.309     0.000     (0)  

------------------------------Saturation indices-------------------------------

	Phase               SI   log IAP   log K(298 K,   1 atm)

	Aragonite        -0.14     -8.48   -8.34  CaCO3
	Calcite           0.00     -8.48   -8.48  CaCO3
	CH4(g)          -21.96    -24.80   -2.84  CH4
	CO2(g)           -6.18     -7.65   -1.47  CO2
	Dolomite(dis)    -7.42    -24.51  -17.09  CaMg(CO3)2
	H2(g)           -10.34     32.65   43.00  H2
	O2(g)           -62.42    -65.31   -2.89  O2


------------------
End of simulation.
------------------

--------------------------------------
Reading input data for simulation 101.
--------------------------------------

	SOLUTION 101 #New Version 
	units mol/kgw 
	temp 25.000000 
	C(4)       1.227217038126e-04     # comp 
	Ca       1.227217041830e-04     # comp 
	Mg       2.875095552109e-12     # comp 
	Cl       5.490997401178e-12     # comp 
	pH       9.909703054923e+00 charge        # comp 
	pe       -4.894943937779e+00       # comp 
	EQUILIBRIUM_PHASES   101
	Calcite 0.000000000000e+00  1.220005000004e-04       # comp 
	END
-------------------------------------------
Beginning of initial solution calculations.
-------------------------------------------

Initial solution 101.	

-----------------------------Solution composition------------------------------

	Elements           Molality       Moles

	C(4)              1.227e-04   1.227e-04
	Ca                1.227e-04   1.227e-04
	Cl                5.491e-12   5.491e-12
	Mg                2.875e-12   2.875e-12

----------------------------Description of solution----------------------------

                                       pH  =   9.910      Charge balance
                                       pe  =  -4.895    
                        Activity of water  =   1.000
                           Ionic strength  =   3.848e-04
                       Mass of water (kg)  =   1.000e+00
                 Total alkalinity (eq/kg)  =   2.454e-04
                       Total CO2 (mol/kg)  =   1.227e-04
                      Temperature (deg C)  =  25.00
                  Electrical balance (eq)  =   8.132e-20
 Percent error, 100*(Cat-|An|)/(Cat+|An|)  =   0.00
                               Iterations  =   4
                                  Total H  = 1.110126e+02
                                  Total O  = 5.550667e+01

----------------------------Distribution of species----------------------------

                                               Log       Log       Log    mole V
   Species          Molality    Activity  Molality  Activity     Gamma   cm3/mol

   OH-             8.317e-05   8.131e-05    -4.080    -4.090    -0.010     (0)  
   H+              1.258e-10   1.231e-10    -9.900    -9.910    -0.009      0.00
   H2O             5.551e+01   1.000e+00     1.744    -0.000     0.000     18.07
C(4)          1.227e-04
   HCO3-           8.316e-05   8.133e-05    -4.080    -4.090    -0.010     (0)  
   CO3-2           3.386e-05   3.098e-05    -4.470    -4.509    -0.039     (0)  
   CaCO3           5.564e-06   5.565e-06    -5.255    -5.255     0.000     (0)  
   CaHCO3+         1.134e-07   1.109e-07    -6.945    -6.955    -0.010     (0)  
   CO2             2.251e-08   2.251e-08    -7.648    -7.648     0.000     (0)  
   MgCO3           7.367e-14   7.368e-14   -13.133   -13.133     0.000     (0)  
   MgHCO3+         2.426e-15   2.372e-15   -14.615   -14.625    -0.010     (0)  
Ca            1.227e-04
   Ca+2            1.169e-04   1.069e-04    -3.932    -3.971    -0.039     (0)  
   CaCO3           5.564e-06   5.565e-06    -5.255    -5.255     0.000     (0)  
   CaOH+           1.474e-07   1.441e-07    -6.831    -6.841    -0.010     (0)  
   CaHCO3+         1.134e-07   1.109e-07    -6.945    -6.955    -0.010     (0)  
Cl            5.491e-12
   Cl-             5.491e-12   5.369e-12   -11.260   -11.270    -0.010     (0)  
H(0)          1.323e-13
   H2              6.614e-14   6.614e-14   -13.180   -13.180     0.000     (0)  
Mg            2.875e-12
   Mg+2            2.724e-12   2.492e-12   -11.565   -11.603    -0.039     (0)  
   MgOH+           7.517e-14   7.350e-14   -13.124   -13.134    -0.010     (0)  
   MgCO3           7.367e-14   7.368e-14   -13.133   -13.133     0.000     (0)  
   MgHCO3+         2.426e-15   2.372e-15   -14.615   -14.625    -0.010     (0)  
O(0)          0.000e+00
   O2              0.000e+00   0.000e+00   -66.021   -66.021     0.000     (0)  

------------------------------Saturation indices-------------------------------

	Phase               SI   log IAP   log K(298 K,   1 atm)

	Aragonite        -0.14     -8.48   -8.34  CaCO3
	Calcite           0.00     -8.48   -8.48  CaCO3
	CO2(g)           -6.18     -7.65   -1.47  CO2
	Dolomite(dis)    -7.50    -24.59  -17.09  CaMg(CO3)2
	H2(g)            -9.99     33.01   43.00  H2
	O2(g)           -63.13    -66.02   -2.89  O2


-----------------------------------------
Beginning of batch-reaction calculations.
-----------------------------------------

Reaction step 1.

Using solution 101.	
Using pure phase assemblage 101.	

-------------------------------Phase assemblage--------------------------------

                                                      Moles in assemblage
Phase               SI  log IAP  log K(T, P)   Initial       Final       Delta

Calcite           0.00    -8.48     -8.48    1.220e-04   1.220e-04   1.636e-17

-----------------------------Solution composition------------------------------

	Elements           Molality       Moles

	C                 1.227e-04   1.227e-04
	Ca                1.227e-04   1.227e-04
	Cl                5.491e-12   5.491e-12
	Mg                2.875e-12   2.875e-12

----------------------------Description of solution----------------------------

                                       pH  =   9.910      Charge balance
                                       pe  =  -4.869      Adjusted to redox equilibrium
                        Activity of water  =   1.000
                           Ionic strength  =   3.848e-04
                       Mass of water (kg)  =   1.000e+00
                 Total alkalinity (eq/kg)  =   2.454e-04
                       Total CO2 (mol/kg)  =   1.227e-04
                      Temperature (deg C)  =  25.00
                  Electrical balance (eq)  =  -6.776e-20
 Percent error, 100*(Cat-|An|)/(Cat+|An|)  =  -0.00
                               Iterations  =   1
                                  Total H  = 1.110126e+02
                                  Total O  = 5.550667e+01

----------------------------Distribution of species----------------------------

                                               Log       Log       Log    mole V
   Species          Molality    Activity  Molality  Activity     Gamma   cm3/mol

   OH-             8.317e-05   8.131e-05    -4.080    -4.090    -0.010     (0)  
   H+              1.258e-10   1.231e-10    -9.900    -9.910    -0.009      0.00
   H2O             5.551e+01   1.000e+00     1.744    -0.000     0.000     18.07
C(-4)         2.599e-24
   CH4             2.599e-24   2.599e-24   -23.585   -23.585     0.000     (0)  
C(4)          1.227e-04
   HCO3-           8.316e-05   8.133e-05    -4.080    -4.090    -0.010     (0)  
   CO3-2           3.386e-05   3.098e-05    -4.470    -4.509    -0.039     (0)  
   CaCO3           5.564e-06   5.565e-06    -5.255    -5.255     0.000     (0)  
   CaHCO3+         1.134e-07   1.109e-07    -6.945    -6.955    -0.010     (0)  
   CO2             2.251e-08   2.251e-08    -7.648    -7.648     0.000     (0)  
   MgCO3           7.367e-14   7.368e-14   -13.133   -13.133     0.000     (0)  
   MgHCO3+         2.426e-15   2.372e-15   -14.615   -14.625    -0.010     (0)  
Ca            1.227e-04
   Ca+2            1.169e-04   1.069e-04    -3.932    -3.971    -0.039     (0)  
   CaCO3           5.564e-06   5.565e-06    -5.255    -5.255     0.000     (0)  
   CaOH+           1.474e-07   1.441e-07    -6.831    -6.841    -0.010     (0)  
   CaHCO3+         1.134e-07   1.109e-07    -6.945    -6.955    -0.010     (0)  
Cl            5.491e-12
   Cl-             5.491e-12   5.369e-12   -11.260   -11.270    -0.010     (0)  
H(0)          1.172e-13
   H2              5.861e-14   5.862e-14   -13.232   -13.232     0.000     (0)  
Mg            2.875e-12
   Mg+2            2.724e-12   2.492e-12   -11.565   -11.603    -0.039     (0)  
   MgOH+           7.517e-14   7.350e-14   -13.124   -13.134    -0.010     (0)  
   MgCO3           7.367e-14   7.368e-14   -13.133   -13.133     0.000     (0)  
   MgHCO3+         2.426e-15   2.372e-15   -14.615   -14.625    -0.010     (0)  
O(0)          0.000e+00
   O2              0.000e+00   0.000e+00   -65.916   -65.916     0.000     (0)  

------------------------------Saturation indices-------------------------------

	Phase               SI   log IAP   log K(298 K,   1 atm)

	Aragonite        -0.14     -8.48   -8.34  CaCO3
	Calcite           0.00     -8.48   -8.48  CaCO3
	CH4(g)          -20.74    -23.59   -2.84  CH4
	CO2(g)           -6.18     -7.65   -1.47  CO2
	Dolomite(dis)    -7.50    -24.59  -17.09  CaMg(CO3)2
	H2(g)           -10.04     32.96   43.00  H2
	O2(g)           -63.02    -65.92   -2.89  O2


------------------
End of simulation.
------------------

--------------------------------------
Reading input data for simulation 102.
--------------------------------------

------------------------------
End of Run after 0.12 Seconds.
------------------------------

