   Input file: phinp.dat
  Output file: phinp.out
Database file: phreeqc.dat

------------------
Reading data base.
------------------

	SOLUTION_MASTER_SPECIES
	SOLUTION_SPECIES
	PHASES
	EXCHANGE_MASTER_SPECIES
	EXCHANGE_SPECIES
	SURFACE_MASTER_SPECIES
	SURFACE_SPECIES
	RATES
------------------------------------
Reading input data for simulation 1.
------------------------------------

	SOLUTION 1 #New Version 
	units mol/kgw 
	temp 25.000000 
	C(4)       1.000000000000e-10     # comp 
	Ca       1.000000000000e-10     # comp 
	Mg       1.000000000000e-03     # comp 
	Cl       2.000000000000e-03     # comp 
	pH       6.944195566361e+00 charge        # comp 
	pe       -6.378314364417e+00       # comp 
	EQUILIBRIUM_PHASES   1
	Calcite 0.000000000000e+00  0.000000000000e+00       # comp 
	KINETICS 1
	Dolomite(dis)  # comp
	m 0.000000000000e+00
	steps 1.000000000000e+02 in 1 steps
	RATES 1
	Dolomite(dis)
	  start
	rem kmech = k25*exp(-Eact/R*(1/T-1/298.15))*Product([Ci]^nyi)
	10  R = 8.314472
	11  deltaT = 1/TK - 1/298.15
	12  e = 2.7183
	13  Ea = 36100
	14  logK25 = -3.19
	15  ny = 0.5
	rem 16  mech_a = (10^logK25) * (e^(-Ea/R*deltaT)) * ACT("H+")^ny
	16  mech_a = (10^logK25) * ACT("H+")^ny
	23  Ea = 52200
	24  logK25 = -7.53
	rem 26  mech_b = (10^logK25) * (e^(-Ea/R*deltaT)) 
	26  mech_b = (10^logK25) 
	30  rate = mech_a + mech_b
	40  teta = 1 
	41  eta = 1
	42  Area = 18.75 
	 100
	70  rate = Area * rate * (1 - SR("Dolomite(dis)")^teta)^eta
	80  moles = rate * time
	 rem  140  if (moles > m) then moles = m
	 rem  160  temp = tot("Ca")
	 rem  161  mm = tot("Mg")
	 rem  170  mc  = tot("C(4)")
	 rem  180  if (mc/2 < temp) then temp = mc/2
	 rem  180  if (mm   < temp) then temp = mm
	 rem  190  if -moles > temp then moles = -temp
	200 save moles
	      end
	PRINT
	 reset true
	 selected_output true
	SELECTED_OUTPUT
	file phout_sel.dat
	high_precision
	reset false
	USER_PUNCH
	heading  C(4) Ca Mg Cl pH  H+  pe  Calcite Dolomite(dis)
	 10 PUNCH  TOT("C(4)"), TOT("Ca"), TOT("Mg"), TOT("Cl"),
	 20 PUNCH  -LA("H+"),  MOL("H+"),   -LA("e-")
	 40 PUNCH  EQUI("Calcite"),
	 80 PUNCH  KIN("Dolomite(dis)"),
	END
-------------------------------------------
Beginning of initial solution calculations.
-------------------------------------------

Initial solution 1.	

-----------------------------Solution composition------------------------------

	Elements           Molality       Moles

	C(4)              1.000e-10   1.000e-10
	Ca                1.000e-10   1.000e-10
	Cl                2.000e-03   2.000e-03
	Mg                1.000e-03   1.000e-03

----------------------------Description of solution----------------------------

                                       pH  =   6.944      Charge balance
                                       pe  =  -6.378    
                        Activity of water  =   1.000
                           Ionic strength  =   3.000e-03
                       Mass of water (kg)  =   1.000e+00
                 Total alkalinity (eq/kg)  =   2.000e-10
                       Total CO2 (mol/kg)  =   1.000e-10
                      Temperature (deg C)  =  25.00
                  Electrical balance (eq)  =   1.898e-16
 Percent error, 100*(Cat-|An|)/(Cat+|An|)  =   0.00
                               Iterations  =   4
                                  Total H  = 1.110125e+02
                                  Total O  = 5.550622e+01

----------------------------Distribution of species----------------------------

                                               Log       Log       Log    mole V
   Species          Molality    Activity  Molality  Activity     Gamma   cm3/mol

   H+              1.202e-07   1.137e-07    -6.920    -6.944    -0.024      0.00
   OH-             9.349e-08   8.800e-08    -7.029    -7.056    -0.026     (0)  
   H2O             5.551e+01   9.999e-01     1.744    -0.000     0.000     18.07
C(4)          1.000e-10
   HCO3-           7.993e-11   7.538e-11   -10.097   -10.123    -0.025     (0)  
   CO2             1.927e-11   1.928e-11   -10.715   -10.715     0.000     (0)  
   MgHCO3+         7.420e-13   6.988e-13   -12.130   -12.156    -0.026     (0)  
   CO3-2           3.929e-14   3.108e-14   -13.406   -13.508    -0.102     (0)  
   MgCO3           2.348e-14   2.350e-14   -13.629   -13.629     0.000     (0)  
   CaHCO3+         8.063e-20   7.604e-20   -19.094   -19.119    -0.025     (0)  
   CaCO3           4.125e-21   4.128e-21   -20.385   -20.384     0.000     (0)  
Ca            1.000e-10
   Ca+2            1.000e-10   7.906e-11   -10.000   -10.102    -0.102     (0)  
   CaOH+           1.225e-16   1.153e-16   -15.912   -15.938    -0.026     (0)  
   CaHCO3+         8.063e-20   7.604e-20   -19.094   -19.119    -0.025     (0)  
   CaCO3           4.125e-21   4.128e-21   -20.385   -20.384     0.000     (0)  
Cl            2.000e-03
   Cl-             2.000e-03   1.883e-03    -2.699    -2.725    -0.026     (0)  
H(0)          1.045e-04
   H2              5.227e-05   5.230e-05    -4.282    -4.281     0.000     (0)  
Mg            1.000e-03
   Mg+2            1.000e-03   7.923e-04    -3.000    -3.101    -0.101     (0)  
   MgOH+           2.685e-08   2.529e-08    -7.571    -7.597    -0.026     (0)  
   MgHCO3+         7.420e-13   6.988e-13   -12.130   -12.156    -0.026     (0)  
   MgCO3           2.348e-14   2.350e-14   -13.629   -13.629     0.000     (0)  
O(0)          0.000e+00
   O2              0.000e+00   0.000e+00   -83.817   -83.817     0.000     (0)  

------------------------------Saturation indices-------------------------------

	Phase               SI   log IAP   log K(298 K,   1 atm)

	Aragonite       -15.27    -23.61   -8.34  CaCO3
	Calcite         -15.13    -23.61   -8.48  CaCO3
	CO2(g)           -9.25    -10.71   -1.47  CO2
	Dolomite(dis)   -23.13    -40.22  -17.09  CaMg(CO3)2
	H2(g)            -1.09     41.91   43.00  H2
	O2(g)           -80.92    -83.82   -2.89  O2


-----------------------------------------
Beginning of batch-reaction calculations.
-----------------------------------------

Reaction step 1.

Using solution 1.	
Using pure phase assemblage 1.	
Using kinetics 1.	

Kinetics 1.	

	Time step: 100 seconds

	Rate name       Delta Moles Total Moles   Reactant        Coefficient

	Dolomite(dis)    -0.000e+00   0.000e+00   Dolomite(dis)             1

-------------------------------Phase assemblage--------------------------------

                                                      Moles in assemblage
Phase               SI  log IAP  log K(T, P)   Initial       Final       Delta

Calcite         -34.28   -42.76     -8.48    0.000e+00           0   0.000e+00

-----------------------------Solution composition------------------------------

	Elements           Molality       Moles

	C                 1.000e-10   1.000e-10
	Ca                1.000e-10   1.000e-10
	Cl                2.000e-03   2.000e-03
	Mg                1.000e-03   1.000e-03

----------------------------Description of solution----------------------------

                                       pH  =   6.944      Charge balance
                                       pe  =  -6.378      Adjusted to redox equilibrium
                        Activity of water  =   1.000
                           Ionic strength  =   3.000e-03
                       Mass of water (kg)  =   1.000e+00
                 Total alkalinity (eq/kg)  =   2.000e-10
                       Total CO2 (mol/kg)  =   7.094e-30
                      Temperature (deg C)  =  25.00
                  Electrical balance (eq)  =   1.888e-16
 Percent error, 100*(Cat-|An|)/(Cat+|An|)  =   0.00
                               Iterations  =   7
                                  Total H  = 1.110125e+02
                                  Total O  = 5.550622e+01

----------------------------Distribution of species----------------------------

                                               Log       Log       Log    mole V
   Species          Molality    Activity  Molality  Activity     Gamma   cm3/mol

   H+              1.202e-07   1.137e-07    -6.920    -6.944    -0.024      0.00
   OH-             9.352e-08   8.803e-08    -7.029    -7.055    -0.026     (0)  
   H2O             5.551e+01   9.999e-01     1.744    -0.000     0.000     18.07
C(-4)         1.000e-10
   CH4             1.000e-10   1.001e-10   -10.000   -10.000     0.000     (0)  
C(4)          7.094e-30
   HCO3-           5.671e-30   5.348e-30   -29.246   -29.272    -0.025     (0)  
   CO2             1.366e-30   1.367e-30   -29.864   -29.864     0.000     (0)  
   MgHCO3+         5.264e-32   4.958e-32   -31.279   -31.305    -0.026     (0)  
   CO3-2           2.788e-33   2.206e-33   -32.555   -32.656    -0.102     (0)  
   MgCO3           1.666e-33   1.668e-33   -32.778   -32.778     0.000     (0)  
   CaHCO3+         5.720e-39   5.394e-39   -38.243   -38.268    -0.025     (0)  
   CaCO3           2.927e-40   2.929e-40   -39.534   -39.533     0.000     (0)  
Ca            1.000e-10
   Ca+2            1.000e-10   7.906e-11   -10.000   -10.102    -0.102     (0)  
   CaOH+           1.225e-16   1.154e-16   -15.912   -15.938    -0.026     (0)  
   CaHCO3+         5.720e-39   5.394e-39   -38.243   -38.268    -0.025     (0)  
   CaCO3           2.927e-40   2.929e-40   -39.534   -39.533     0.000     (0)  
Cl            2.000e-03
   Cl-             2.000e-03   1.883e-03    -2.699    -2.725    -0.026     (0)  
H(0)          1.045e-04
   H2              5.227e-05   5.230e-05    -4.282    -4.281     0.000     (0)  
Mg            1.000e-03
   Mg+2            1.000e-03   7.923e-04    -3.000    -3.101    -0.101     (0)  
   MgOH+           2.686e-08   2.530e-08    -7.571    -7.597    -0.026     (0)  
   MgHCO3+         5.264e-32   4.958e-32   -31.279   -31.305    -0.026     (0)  
   MgCO3           1.666e-33   1.668e-33   -32.778   -32.778     0.000     (0)  
O(0)          0.000e+00
   O2              0.000e+00   0.000e+00   -83.817   -83.817     0.000     (0)  

------------------------------Saturation indices-------------------------------

	Phase               SI   log IAP   log K(298 K,   1 atm)

	Aragonite       -34.42    -42.76   -8.34  CaCO3
	Calcite         -34.28    -42.76   -8.48  CaCO3
	CH4(g)           -7.16    -10.00   -2.84  CH4
	CO2(g)          -28.40    -29.86   -1.47  CO2
	Dolomite(dis)   -61.43    -78.52  -17.09  CaMg(CO3)2
	H2(g)            -1.09     41.91   43.00  H2
	O2(g)           -80.92    -83.82   -2.89  O2


------------------
End of simulation.
------------------

------------------------------------
Reading input data for simulation 2.
------------------------------------

	SOLUTION 2 #New Version 
	units mol/kgw 
	temp 25.000000 
	C(4)       7.386540715299e-09     # comp 
	Ca       4.512694443954e-09     # comp 
	Mg       9.999989283532e-04     # comp 
	Cl       1.999991911305e-03     # comp 
	pH       6.960591156654e+00 charge        # comp 
	pe       -3.325213036102e+00       # comp 
	EQUILIBRIUM_PHASES   2
	Calcite 0.000000000000e+00  0.000000000000e+00       # comp 
	KINETICS 2
	Dolomite(dis)  # comp
	m 0.000000000000e+00
	steps 1.000000000000e+02 in 1 steps
	RATES 2
	Dolomite(dis)
	  start
	rem kmech = k25*exp(-Eact/R*(1/T-1/298.15))*Product([Ci]^nyi)
	10  R = 8.314472
	11  deltaT = 1/TK - 1/298.15
	12  e = 2.7183
	13  Ea = 36100
	14  logK25 = -3.19
	15  ny = 0.5
	rem 16  mech_a = (10^logK25) * (e^(-Ea/R*deltaT)) * ACT("H+")^ny
	16  mech_a = (10^logK25) * ACT("H+")^ny
	23  Ea = 52200
	24  logK25 = -7.53
	rem 26  mech_b = (10^logK25) * (e^(-Ea/R*deltaT)) 
	26  mech_b = (10^logK25) 
	30  rate = mech_a + mech_b
	40  teta = 1 
	41  eta = 1
	42  Area = 18.75 
	 100
	70  rate = Area * rate * (1 - SR("Dolomite(dis)")^teta)^eta
	80  moles = rate * time
	 rem  140  if (moles > m) then moles = m
	 rem  160  temp = tot("Ca")
	 rem  161  mm = tot("Mg")
	 rem  170  mc  = tot("C(4)")
	 rem  180  if (mc/2 < temp) then temp = mc/2
	 rem  180  if (mm   < temp) then temp = mm
	 rem  190  if -moles > temp then moles = -temp
	200 save moles
	      end
	END
-------------------------------------------
Beginning of initial solution calculations.
-------------------------------------------

Initial solution 2.	

-----------------------------Solution composition------------------------------

	Elements           Molality       Moles

	C(4)              7.387e-09   7.387e-09
	Ca                4.513e-09   4.513e-09
	Cl                2.000e-03   2.000e-03
	Mg                1.000e-03   1.000e-03

----------------------------Description of solution----------------------------

                                       pH  =   6.960      Charge balance
                                       pe  =  -3.325    
                        Activity of water  =   1.000
                           Ionic strength  =   3.000e-03
                       Mass of water (kg)  =   1.000e+00
                 Total alkalinity (eq/kg)  =   1.497e-08
                       Total CO2 (mol/kg)  =   7.387e-09
                      Temperature (deg C)  =  25.00
                  Electrical balance (eq)  =   1.903e-16
 Percent error, 100*(Cat-|An|)/(Cat+|An|)  =   0.00
                               Iterations  =   4
                                  Total H  = 1.110124e+02
                                  Total O  = 5.550622e+01

----------------------------Distribution of species----------------------------

                                               Log       Log       Log    mole V
   Species          Molality    Activity  Molality  Activity     Gamma   cm3/mol

   H+              1.159e-07   1.096e-07    -6.936    -6.960    -0.024      0.00
   OH-             9.699e-08   9.130e-08    -7.013    -7.040    -0.026     (0)  
   H2O             5.551e+01   9.999e-01     1.744    -0.000     0.000     18.07
C(4)          7.387e-09
   HCO3-           5.945e-09   5.607e-09    -8.226    -8.251    -0.025     (0)  
   CO2             1.381e-09   1.382e-09    -8.860    -8.859     0.000     (0)  
   MgHCO3+         5.519e-11   5.198e-11   -10.258   -10.284    -0.026     (0)  
   CO3-2           3.032e-12   2.398e-12   -11.518   -11.620    -0.102     (0)  
   MgCO3           1.812e-12   1.813e-12   -11.742   -11.742     0.000     (0)  
   CaHCO3+         2.706e-16   2.552e-16   -15.568   -15.593    -0.025     (0)  
   CaCO3           1.436e-17   1.437e-17   -16.843   -16.842     0.000     (0)  
Ca            4.513e-09
   Ca+2            4.513e-09   3.568e-09    -8.346    -8.448    -0.102     (0)  
   CaOH+           5.734e-15   5.400e-15   -14.242   -14.268    -0.026     (0)  
   CaHCO3+         2.706e-16   2.552e-16   -15.568   -15.593    -0.025     (0)  
   CaCO3           1.436e-17   1.437e-17   -16.843   -16.842     0.000     (0)  
Cl            2.000e-03
   Cl-             2.000e-03   1.883e-03    -2.699    -2.725    -0.026     (0)  
H(0)          7.606e-11
   H2              3.803e-11   3.805e-11   -10.420   -10.420     0.000     (0)  
Mg            1.000e-03
   Mg+2            1.000e-03   7.923e-04    -3.000    -3.101    -0.101     (0)  
   MgOH+           2.786e-08   2.624e-08    -7.555    -7.581    -0.026     (0)  
   MgHCO3+         5.519e-11   5.198e-11   -10.258   -10.284    -0.026     (0)  
   MgCO3           1.812e-12   1.813e-12   -11.742   -11.742     0.000     (0)  
O(0)          0.000e+00
   O2              0.000e+00   0.000e+00   -71.541   -71.541     0.000     (0)  

------------------------------Saturation indices-------------------------------

	Phase               SI   log IAP   log K(298 K,   1 atm)

	Aragonite       -11.73    -20.07   -8.34  CaCO3
	Calcite         -11.59    -20.07   -8.48  CaCO3
	CO2(g)           -7.39     -8.86   -1.47  CO2
	Dolomite(dis)   -17.70    -34.79  -17.09  CaMg(CO3)2
	H2(g)            -7.23     35.77   43.00  H2
	O2(g)           -68.65    -71.54   -2.89  O2


-----------------------------------------
Beginning of batch-reaction calculations.
-----------------------------------------

Reaction step 1.

Using solution 2.	
Using pure phase assemblage 2.	
Using kinetics 2.	

Kinetics 2.	

	Time step: 100 seconds

	Rate name       Delta Moles Total Moles   Reactant        Coefficient

	Dolomite(dis)    -0.000e+00   0.000e+00   Dolomite(dis)             1

-------------------------------Phase assemblage--------------------------------

                                                      Moles in assemblage
Phase               SI  log IAP  log K(T, P)   Initial       Final       Delta

Calcite         -11.59   -20.07     -8.48    0.000e+00           0   0.000e+00

-----------------------------Solution composition------------------------------

	Elements           Molality       Moles

	C                 7.387e-09   7.387e-09
	Ca                4.513e-09   4.513e-09
	Cl                2.000e-03   2.000e-03
	Mg                1.000e-03   1.000e-03

----------------------------Description of solution----------------------------

                                       pH  =   6.960      Charge balance
                                       pe  =  -3.325      Adjusted to redox equilibrium
                        Activity of water  =   1.000
                           Ionic strength  =   3.000e-03
                       Mass of water (kg)  =   1.000e+00
                 Total alkalinity (eq/kg)  =   1.497e-08
                       Total CO2 (mol/kg)  =   7.387e-09
                      Temperature (deg C)  =  25.00
                  Electrical balance (eq)  =   2.006e-16
 Percent error, 100*(Cat-|An|)/(Cat+|An|)  =   0.00
                               Iterations  =   5
                                  Total H  = 1.110124e+02
                                  Total O  = 5.550622e+01

----------------------------Distribution of species----------------------------

                                               Log       Log       Log    mole V
   Species          Molality    Activity  Molality  Activity     Gamma   cm3/mol

   H+              1.159e-07   1.096e-07    -6.936    -6.960    -0.024      0.00
   OH-             9.699e-08   9.130e-08    -7.013    -7.040    -0.026     (0)  
   H2O             5.551e+01   9.999e-01     1.744    -0.000     0.000     18.07
C(-4)         2.798e-14
   CH4             2.798e-14   2.800e-14   -13.553   -13.553     0.000     (0)  
C(4)          7.387e-09
   HCO3-           5.945e-09   5.607e-09    -8.226    -8.251    -0.025     (0)  
   CO2             1.381e-09   1.382e-09    -8.860    -8.859     0.000     (0)  
   MgHCO3+         5.519e-11   5.198e-11   -10.258   -10.284    -0.026     (0)  
   CO3-2           3.032e-12   2.398e-12   -11.518   -11.620    -0.102     (0)  
   MgCO3           1.812e-12   1.813e-12   -11.742   -11.742     0.000     (0)  
   CaHCO3+         2.706e-16   2.552e-16   -15.568   -15.593    -0.025     (0)  
   CaCO3           1.436e-17   1.437e-17   -16.843   -16.842     0.000     (0)  
Ca            4.513e-09
   Ca+2            4.513e-09   3.568e-09    -8.346    -8.448    -0.102     (0)  
   CaOH+           5.734e-15   5.400e-15   -14.242   -14.268    -0.026     (0)  
   CaHCO3+         2.706e-16   2.552e-16   -15.568   -15.593    -0.025     (0)  
   CaCO3           1.436e-17   1.437e-17   -16.843   -16.842     0.000     (0)  
Cl            2.000e-03
   Cl-             2.000e-03   1.883e-03    -2.699    -2.725    -0.026     (0)  
H(0)          7.582e-11
   H2              3.791e-11   3.794e-11   -10.421   -10.421     0.000     (0)  
Mg            1.000e-03
   Mg+2            1.000e-03   7.923e-04    -3.000    -3.101    -0.101     (0)  
   MgOH+           2.786e-08   2.624e-08    -7.555    -7.581    -0.026     (0)  
   MgHCO3+         5.519e-11   5.198e-11   -10.258   -10.284    -0.026     (0)  
   MgCO3           1.812e-12   1.813e-12   -11.742   -11.742     0.000     (0)  
O(0)          0.000e+00
   O2              0.000e+00   0.000e+00   -71.538   -71.538     0.000     (0)  

------------------------------Saturation indices-------------------------------

	Phase               SI   log IAP   log K(298 K,   1 atm)

	Aragonite       -11.73    -20.07   -8.34  CaCO3
	Calcite         -11.59    -20.07   -8.48  CaCO3
	CH4(g)          -10.71    -13.55   -2.84  CH4
	CO2(g)           -7.39     -8.86   -1.47  CO2
	Dolomite(dis)   -17.70    -34.79  -17.09  CaMg(CO3)2
	H2(g)            -7.23     35.77   43.00  H2
	O2(g)           -68.65    -71.54   -2.89  O2


------------------
End of simulation.
------------------

------------------------------------
Reading input data for simulation 3.
------------------------------------

	SOLUTION 3 #New Version 
	units mol/kgw 
	temp 25.000000 
	C(4)       2.159112127873e-08     # comp 
	Ca       1.297481099585e-08     # comp 
	Mg       9.999970448704e-04     # comp 
	Cl       1.999976657753e-03     # comp 
	pH       6.991614785469e+00 charge        # comp 
	pe       -3.357835505958e+00       # comp 
	EQUILIBRIUM_PHASES   3
	Calcite 0.000000000000e+00  0.000000000000e+00       # comp 
	KINETICS 3
	Dolomite(dis)  # comp
	m 0.000000000000e+00
	steps 1.000000000000e+02 in 1 steps
	RATES 3
	Dolomite(dis)
	  start
	rem kmech = k25*exp(-Eact/R*(1/T-1/298.15))*Product([Ci]^nyi)
	10  R = 8.314472
	11  deltaT = 1/TK - 1/298.15
	12  e = 2.7183
	13  Ea = 36100
	14  logK25 = -3.19
	15  ny = 0.5
	rem 16  mech_a = (10^logK25) * (e^(-Ea/R*deltaT)) * ACT("H+")^ny
	16  mech_a = (10^logK25) * ACT("H+")^ny
	23  Ea = 52200
	24  logK25 = -7.53
	rem 26  mech_b = (10^logK25) * (e^(-Ea/R*deltaT)) 
	26  mech_b = (10^logK25) 
	30  rate = mech_a + mech_b
	40  teta = 1 
	41  eta = 1
	42  Area = 18.75 
	 100
	70  rate = Area * rate * (1 - SR("Dolomite(dis)")^teta)^eta
	80  moles = rate * time
	 rem  140  if (moles > m) then moles = m
	 rem  160  temp = tot("Ca")
	 rem  161  mm = tot("Mg")
	 rem  170  mc  = tot("C(4)")
	 rem  180  if (mc/2 < temp) then temp = mc/2
	 rem  180  if (mm   < temp) then temp = mm
	 rem  190  if -moles > temp then moles = -temp
	200 save moles
	      end
	END
-------------------------------------------
Beginning of initial solution calculations.
-------------------------------------------

Initial solution 3.	

-----------------------------Solution composition------------------------------

	Elements           Molality       Moles

	C(4)              2.159e-08   2.159e-08
	Ca                1.297e-08   1.297e-08
	Cl                2.000e-03   2.000e-03
	Mg                1.000e-03   1.000e-03

----------------------------Description of solution----------------------------

                                       pH  =   6.990      Charge balance
                                       pe  =  -3.358    
                        Activity of water  =   1.000
                           Ionic strength  =   3.000e-03
                       Mass of water (kg)  =   1.000e+00
                 Total alkalinity (eq/kg)  =   4.338e-08
                       Total CO2 (mol/kg)  =   2.159e-08
                      Temperature (deg C)  =  25.00
                  Electrical balance (eq)  =   1.929e-16
 Percent error, 100*(Cat-|An|)/(Cat+|An|)  =   0.00
                               Iterations  =   4
                                  Total H  = 1.110124e+02
                                  Total O  = 5.550622e+01

----------------------------Distribution of species----------------------------

                                               Log       Log       Log    mole V
   Species          Molality    Activity  Molality  Activity     Gamma   cm3/mol

   H+              1.082e-07   1.023e-07    -6.966    -6.990    -0.024      0.00
   OH-             1.039e-07   9.781e-08    -6.983    -7.010    -0.026     (0)  
   H2O             5.551e+01   9.999e-01     1.744    -0.000     0.000     18.07
C(4)          2.159e-08
   HCO3-           1.760e-08   1.659e-08    -7.755    -7.780    -0.025     (0)  
   CO2             3.816e-09   3.819e-09    -8.418    -8.418     0.000     (0)  
   MgHCO3+         1.633e-10   1.538e-10    -9.787    -9.813    -0.026     (0)  
   CO3-2           9.614e-12   7.604e-12   -11.017   -11.119    -0.102     (0)  
   MgCO3           5.745e-12   5.749e-12   -11.241   -11.240     0.000     (0)  
   CaHCO3+         2.303e-15   2.172e-15   -14.638   -14.663    -0.025     (0)  
   CaCO3           1.310e-16   1.310e-16   -15.883   -15.883     0.000     (0)  
Ca            1.297e-08
   Ca+2            1.297e-08   1.026e-08    -7.887    -7.989    -0.102     (0)  
   CaOH+           1.766e-14   1.663e-14   -13.753   -13.779    -0.026     (0)  
   CaHCO3+         2.303e-15   2.172e-15   -14.638   -14.663    -0.025     (0)  
   CaCO3           1.310e-16   1.310e-16   -15.883   -15.883     0.000     (0)  
Cl            2.000e-03
   Cl-             2.000e-03   1.883e-03    -2.699    -2.725    -0.026     (0)  
H(0)          7.700e-11
   H2              3.850e-11   3.853e-11   -10.415   -10.414     0.000     (0)  
Mg            1.000e-03
   Mg+2            1.000e-03   7.923e-04    -3.000    -3.101    -0.101     (0)  
   MgOH+           2.984e-08   2.811e-08    -7.525    -7.551    -0.026     (0)  
   MgHCO3+         1.633e-10   1.538e-10    -9.787    -9.813    -0.026     (0)  
   MgCO3           5.745e-12   5.749e-12   -11.241   -11.240     0.000     (0)  
O(0)          0.000e+00
   O2              0.000e+00   0.000e+00   -71.552   -71.552     0.000     (0)  

------------------------------Saturation indices-------------------------------

	Phase               SI   log IAP   log K(298 K,   1 atm)

	Aragonite       -10.77    -19.11   -8.34  CaCO3
	Calcite         -10.63    -19.11   -8.48  CaCO3
	CO2(g)           -6.95     -8.42   -1.47  CO2
	Dolomite(dis)   -16.24    -33.33  -17.09  CaMg(CO3)2
	H2(g)            -7.22     35.78   43.00  H2
	O2(g)           -68.66    -71.55   -2.89  O2


-----------------------------------------
Beginning of batch-reaction calculations.
-----------------------------------------

Reaction step 1.

Using solution 3.	
Using pure phase assemblage 3.	
Using kinetics 3.	

Kinetics 3.	

	Time step: 100 seconds

	Rate name       Delta Moles Total Moles   Reactant        Coefficient

	Dolomite(dis)    -0.000e+00   0.000e+00   Dolomite(dis)             1

-------------------------------Phase assemblage--------------------------------

                                                      Moles in assemblage
Phase               SI  log IAP  log K(T, P)   Initial       Final       Delta

Calcite         -10.63   -19.11     -8.48    0.000e+00           0   0.000e+00

-----------------------------Solution composition------------------------------

	Elements           Molality       Moles

	C                 2.159e-08   2.159e-08
	Ca                1.297e-08   1.297e-08
	Cl                2.000e-03   2.000e-03
	Mg                1.000e-03   1.000e-03

----------------------------Description of solution----------------------------

                                       pH  =   6.990      Charge balance
                                       pe  =  -3.356      Adjusted to redox equilibrium
                        Activity of water  =   1.000
                           Ionic strength  =   3.000e-03
                       Mass of water (kg)  =   1.000e+00
                 Total alkalinity (eq/kg)  =   4.338e-08
                       Total CO2 (mol/kg)  =   2.159e-08
                      Temperature (deg C)  =  25.00
                  Electrical balance (eq)  =   2.045e-16
 Percent error, 100*(Cat-|An|)/(Cat+|An|)  =   0.00
                               Iterations  =   5
                                  Total H  = 1.110124e+02
                                  Total O  = 5.550622e+01

----------------------------Distribution of species----------------------------

                                               Log       Log       Log    mole V
   Species          Molality    Activity  Molality  Activity     Gamma   cm3/mol

   H+              1.082e-07   1.023e-07    -6.966    -6.990    -0.024      0.00
   OH-             1.039e-07   9.781e-08    -6.983    -7.010    -0.026     (0)  
   H2O             5.551e+01   9.999e-01     1.744    -0.000     0.000     18.07
C(-4)         7.933e-14
   CH4             7.933e-14   7.938e-14   -13.101   -13.100     0.000     (0)  
C(4)          2.159e-08
   HCO3-           1.760e-08   1.659e-08    -7.755    -7.780    -0.025     (0)  
   CO2             3.816e-09   3.819e-09    -8.418    -8.418     0.000     (0)  
   MgHCO3+         1.633e-10   1.538e-10    -9.787    -9.813    -0.026     (0)  
   CO3-2           9.614e-12   7.604e-12   -11.017   -11.119    -0.102     (0)  
   MgCO3           5.745e-12   5.749e-12   -11.241   -11.240     0.000     (0)  
   CaHCO3+         2.303e-15   2.172e-15   -14.638   -14.663    -0.025     (0)  
   CaCO3           1.310e-16   1.310e-16   -15.883   -15.883     0.000     (0)  
Ca            1.297e-08
   Ca+2            1.297e-08   1.026e-08    -7.887    -7.989    -0.102     (0)  
   CaOH+           1.766e-14   1.663e-14   -13.753   -13.779    -0.026     (0)  
   CaHCO3+         2.303e-15   2.172e-15   -14.638   -14.663    -0.025     (0)  
   CaCO3           1.310e-16   1.310e-16   -15.883   -15.883     0.000     (0)  
Cl            2.000e-03
   Cl-             2.000e-03   1.883e-03    -2.699    -2.725    -0.026     (0)  
H(0)          7.631e-11
   H2              3.816e-11   3.818e-11   -10.418   -10.418     0.000     (0)  
Mg            1.000e-03
   Mg+2            1.000e-03   7.923e-04    -3.000    -3.101    -0.101     (0)  
   MgOH+           2.984e-08   2.811e-08    -7.525    -7.551    -0.026     (0)  
   MgHCO3+         1.633e-10   1.538e-10    -9.787    -9.813    -0.026     (0)  
   MgCO3           5.745e-12   5.749e-12   -11.241   -11.240     0.000     (0)  
O(0)          0.000e+00
   O2              0.000e+00   0.000e+00   -71.544   -71.544     0.000     (0)  

------------------------------Saturation indices-------------------------------

	Phase               SI   log IAP   log K(298 K,   1 atm)

	Aragonite       -10.77    -19.11   -8.34  CaCO3
	Calcite         -10.63    -19.11   -8.48  CaCO3
	CH4(g)          -10.26    -13.10   -2.84  CH4
	CO2(g)           -6.95     -8.42   -1.47  CO2
	Dolomite(dis)   -16.24    -33.33  -17.09  CaMg(CO3)2
	H2(g)            -7.23     35.77   43.00  H2
	O2(g)           -68.65    -71.54   -2.89  O2


------------------
End of simulation.
------------------

------------------------------------
Reading input data for simulation 4.
------------------------------------

	SOLUTION 4 #New Version 
	units mol/kgw 
	temp 25.000000 
	C(4)       4.727189748202e-08     # comp 
	Ca       2.820177133843e-08     # comp 
	Mg       9.999941403263e-04     # comp 
	Cl       1.999949938335e-03     # comp 
	pH       7.045742679981e+00 charge        # comp 
	pe       1.115459909145e+01       # comp 
	EQUILIBRIUM_PHASES   4
	Calcite 0.000000000000e+00  0.000000000000e+00       # comp 
	KINETICS 4
	Dolomite(dis)  # comp
	m 0.000000000000e+00
	steps 1.000000000000e+02 in 1 steps
	RATES 4
	Dolomite(dis)
	  start
	rem kmech = k25*exp(-Eact/R*(1/T-1/298.15))*Product([Ci]^nyi)
	10  R = 8.314472
	11  deltaT = 1/TK - 1/298.15
	12  e = 2.7183
	13  Ea = 36100
	14  logK25 = -3.19
	15  ny = 0.5
	rem 16  mech_a = (10^logK25) * (e^(-Ea/R*deltaT)) * ACT("H+")^ny
	16  mech_a = (10^logK25) * ACT("H+")^ny
	23  Ea = 52200
	24  logK25 = -7.53
	rem 26  mech_b = (10^logK25) * (e^(-Ea/R*deltaT)) 
	26  mech_b = (10^logK25) 
	30  rate = mech_a + mech_b
	40  teta = 1 
	41  eta = 1
	42  Area = 18.75 
	 100
	70  rate = Area * rate * (1 - SR("Dolomite(dis)")^teta)^eta
	80  moles = rate * time
	 rem  140  if (moles > m) then moles = m
	 rem  160  temp = tot("Ca")
	 rem  161  mm = tot("Mg")
	 rem  170  mc  = tot("C(4)")
	 rem  180  if (mc/2 < temp) then temp = mc/2
	 rem  180  if (mm   < temp) then temp = mm
	 rem  190  if -moles > temp then moles = -temp
	200 save moles
	      end
	END
-------------------------------------------
Beginning of initial solution calculations.
-------------------------------------------

Initial solution 4.	

-----------------------------Solution composition------------------------------

	Elements           Molality       Moles

	C(4)              4.727e-08   4.727e-08
	Ca                2.820e-08   2.820e-08
	Cl                2.000e-03   2.000e-03
	Mg                1.000e-03   1.000e-03

----------------------------Description of solution----------------------------

                                       pH  =   7.042      Charge balance
                                       pe  =  11.155    
                        Activity of water  =   1.000
                           Ionic strength  =   3.000e-03
                       Mass of water (kg)  =   1.000e+00
                 Total alkalinity (eq/kg)  =   9.475e-08
                       Total CO2 (mol/kg)  =   4.727e-08
                      Temperature (deg C)  =  25.00
                  Electrical balance (eq)  =   1.918e-16
 Percent error, 100*(Cat-|An|)/(Cat+|An|)  =   0.00
                               Iterations  =   4
                                  Total H  = 1.110124e+02
                                  Total O  = 5.550622e+01

----------------------------Distribution of species----------------------------

                                               Log       Log       Log    mole V
   Species          Molality    Activity  Molality  Activity     Gamma   cm3/mol

   OH-             1.172e-07   1.103e-07    -6.931    -6.957    -0.026     (0)  
   H+              9.589e-08   9.073e-08    -7.018    -7.042    -0.024      0.00
   H2O             5.551e+01   9.999e-01     1.744    -0.000     0.000     18.07
C(4)          4.727e-08
   HCO3-           3.931e-08   3.707e-08    -7.405    -7.431    -0.025     (0)  
   CO2             7.557e-09   7.563e-09    -8.122    -8.121     0.000     (0)  
   MgHCO3+         3.649e-10   3.437e-10    -9.438    -9.464    -0.026     (0)  
   CO3-2           2.423e-11   1.916e-11   -10.616   -10.718    -0.102     (0)  
   MgCO3           1.448e-11   1.449e-11   -10.839   -10.839     0.000     (0)  
   CaHCO3+         1.118e-14   1.055e-14   -13.951   -13.977    -0.025     (0)  
   CaCO3           7.173e-16   7.178e-16   -15.144   -15.144     0.000     (0)  
Ca            2.820e-08
   Ca+2            2.820e-08   2.230e-08    -7.550    -7.652    -0.102     (0)  
   CaOH+           4.330e-14   4.078e-14   -13.363   -13.390    -0.026     (0)  
   CaHCO3+         1.118e-14   1.055e-14   -13.951   -13.977    -0.025     (0)  
   CaCO3           7.173e-16   7.178e-16   -15.144   -15.144     0.000     (0)  
Cl            2.000e-03
   Cl-             2.000e-03   1.883e-03    -2.699    -2.725    -0.026     (0)  
H(0)          5.715e-40
   H2              2.857e-40   2.859e-40   -39.544   -39.544     0.000     (0)  
Mg            1.000e-03
   Mg+2            1.000e-03   7.923e-04    -3.000    -3.101    -0.101     (0)  
   MgOH+           3.366e-08   3.171e-08    -7.473    -7.499    -0.026     (0)  
   MgHCO3+         3.649e-10   3.437e-10    -9.438    -9.464    -0.026     (0)  
   MgCO3           1.448e-11   1.449e-11   -10.839   -10.839     0.000     (0)  
O(0)          1.019e-13
   O2              5.095e-14   5.098e-14   -13.293   -13.293     0.000     (0)  

------------------------------Saturation indices-------------------------------

	Phase               SI   log IAP   log K(298 K,   1 atm)

	Aragonite       -10.03    -18.37   -8.34  CaCO3
	Calcite          -9.89    -18.37   -8.48  CaCO3
	CO2(g)           -6.65     -8.12   -1.47  CO2
	Dolomite(dis)   -15.10    -32.19  -17.09  CaMg(CO3)2
	H2(g)           -36.35      6.65   43.00  H2
	O2(g)           -10.40    -13.29   -2.89  O2


-----------------------------------------
Beginning of batch-reaction calculations.
-----------------------------------------

Reaction step 1.

Using solution 4.	
Using pure phase assemblage 4.	
Using kinetics 4.	

Kinetics 4.	

	Time step: 100 seconds

	Rate name       Delta Moles Total Moles   Reactant        Coefficient

	Dolomite(dis)    -0.000e+00   0.000e+00   Dolomite(dis)             1

-------------------------------Phase assemblage--------------------------------

                                                      Moles in assemblage
Phase               SI  log IAP  log K(T, P)   Initial       Final       Delta

Calcite          -9.89   -18.37     -8.48    0.000e+00           0   0.000e+00

-----------------------------Solution composition------------------------------

	Elements           Molality       Moles

	C                 4.727e-08   4.727e-08
	Ca                2.820e-08   2.820e-08
	Cl                2.000e-03   2.000e-03
	Mg                1.000e-03   1.000e-03

----------------------------Description of solution----------------------------

                                       pH  =   7.042      Charge balance
                                       pe  =  11.148      Adjusted to redox equilibrium
                        Activity of water  =   1.000
                           Ionic strength  =   3.000e-03
                       Mass of water (kg)  =   1.000e+00
                 Total alkalinity (eq/kg)  =   9.475e-08
                       Total CO2 (mol/kg)  =   4.727e-08
                      Temperature (deg C)  =  25.00
                  Electrical balance (eq)  =   2.033e-16
 Percent error, 100*(Cat-|An|)/(Cat+|An|)  =   0.00
                               Iterations  =   5
                                  Total H  = 1.110124e+02
                                  Total O  = 5.550622e+01

----------------------------Distribution of species----------------------------

                                               Log       Log       Log    mole V
   Species          Molality    Activity  Molality  Activity     Gamma   cm3/mol

   OH-             1.172e-07   1.103e-07    -6.931    -6.957    -0.026     (0)  
   H+              9.589e-08   9.073e-08    -7.018    -7.042    -0.024      0.00
   H2O             5.551e+01   9.999e-01     1.744    -0.000     0.000     18.07
C(-4)         0.000e+00
   CH4             0.000e+00   0.000e+00  -129.257  -129.257     0.000     (0)  
C(4)          4.727e-08
   HCO3-           3.931e-08   3.707e-08    -7.405    -7.431    -0.025     (0)  
   CO2             7.557e-09   7.563e-09    -8.122    -8.121     0.000     (0)  
   MgHCO3+         3.649e-10   3.437e-10    -9.438    -9.464    -0.026     (0)  
   CO3-2           2.423e-11   1.916e-11   -10.616   -10.718    -0.102     (0)  
   MgCO3           1.448e-11   1.449e-11   -10.839   -10.839     0.000     (0)  
   CaHCO3+         1.118e-14   1.055e-14   -13.951   -13.977    -0.025     (0)  
   CaCO3           7.173e-16   7.178e-16   -15.144   -15.144     0.000     (0)  
Ca            2.820e-08
   Ca+2            2.820e-08   2.230e-08    -7.550    -7.652    -0.102     (0)  
   CaOH+           4.330e-14   4.078e-14   -13.363   -13.390    -0.026     (0)  
   CaHCO3+         1.118e-14   1.055e-14   -13.951   -13.977    -0.025     (0)  
   CaCO3           7.173e-16   7.178e-16   -15.144   -15.144     0.000     (0)  
Cl            2.000e-03
   Cl-             2.000e-03   1.883e-03    -2.699    -2.725    -0.026     (0)  
H(0)          5.878e-40
   H2              2.939e-40   2.941e-40   -39.532   -39.531     0.000     (0)  
Mg            1.000e-03
   Mg+2            1.000e-03   7.923e-04    -3.000    -3.101    -0.101     (0)  
   MgOH+           3.366e-08   3.171e-08    -7.473    -7.499    -0.026     (0)  
   MgHCO3+         3.649e-10   3.437e-10    -9.438    -9.464    -0.026     (0)  
   MgCO3           1.448e-11   1.449e-11   -10.839   -10.839     0.000     (0)  
O(0)          9.630e-14
   O2              4.815e-14   4.818e-14   -13.317   -13.317     0.000     (0)  

------------------------------Saturation indices-------------------------------

	Phase               SI   log IAP   log K(298 K,   1 atm)

	Aragonite       -10.03    -18.37   -8.34  CaCO3
	Calcite          -9.89    -18.37   -8.48  CaCO3
	CH4(g)         -126.41   -129.26   -2.84  CH4
	CO2(g)           -6.65     -8.12   -1.47  CO2
	Dolomite(dis)   -15.10    -32.19  -17.09  CaMg(CO3)2
	H2(g)           -36.34      6.66   43.00  H2
	O2(g)           -10.42    -13.32   -2.89  O2


------------------
End of simulation.
------------------

------------------------------------
Reading input data for simulation 5.
------------------------------------

	SOLUTION 5 #New Version 
	units mol/kgw 
	temp 25.000000 
	C(4)       9.188085047580e-08     # comp 
	Ca       5.449213513636e-08     # comp 
	Mg       9.999902051828e-04     # comp 
	Cl       1.999905426933e-03     # comp 
	pH       7.132998898929e+00 charge        # comp 
	pe       -3.506261825422e+00       # comp 
	EQUILIBRIUM_PHASES   5
	Calcite 0.000000000000e+00  0.000000000000e+00       # comp 
	KINETICS 5
	Dolomite(dis)  # comp
	m 0.000000000000e+00
	steps 1.000000000000e+02 in 1 steps
	RATES 5
	Dolomite(dis)
	  start
	rem kmech = k25*exp(-Eact/R*(1/T-1/298.15))*Product([Ci]^nyi)
	10  R = 8.314472
	11  deltaT = 1/TK - 1/298.15
	12  e = 2.7183
	13  Ea = 36100
	14  logK25 = -3.19
	15  ny = 0.5
	rem 16  mech_a = (10^logK25) * (e^(-Ea/R*deltaT)) * ACT("H+")^ny
	16  mech_a = (10^logK25) * ACT("H+")^ny
	23  Ea = 52200
	24  logK25 = -7.53
	rem 26  mech_b = (10^logK25) * (e^(-Ea/R*deltaT)) 
	26  mech_b = (10^logK25) 
	30  rate = mech_a + mech_b
	40  teta = 1 
	41  eta = 1
	42  Area = 18.75 
	 100
	70  rate = Area * rate * (1 - SR("Dolomite(dis)")^teta)^eta
	80  moles = rate * time
	 rem  140  if (moles > m) then moles = m
	 rem  160  temp = tot("Ca")
	 rem  161  mm = tot("Mg")
	 rem  170  mc  = tot("C(4)")
	 rem  180  if (mc/2 < temp) then temp = mc/2
	 rem  180  if (mm   < temp) then temp = mm
	 rem  190  if -moles > temp then moles = -temp
	200 save moles
	      end
	END
-------------------------------------------
Beginning of initial solution calculations.
-------------------------------------------

Initial solution 5.	

-----------------------------Solution composition------------------------------

	Elements           Molality       Moles

	C(4)              9.188e-08   9.188e-08
	Ca                5.449e-08   5.449e-08
	Cl                2.000e-03   2.000e-03
	Mg                1.000e-03   1.000e-03

----------------------------Description of solution----------------------------

                                       pH  =   7.127      Charge balance
                                       pe  =  -3.506    
                        Activity of water  =   1.000
                           Ionic strength  =   3.000e-03
                       Mass of water (kg)  =   1.000e+00
                 Total alkalinity (eq/kg)  =   1.840e-07
                       Total CO2 (mol/kg)  =   9.188e-08
                      Temperature (deg C)  =  25.00
                  Electrical balance (eq)  =   1.917e-16
 Percent error, 100*(Cat-|An|)/(Cat+|An|)  =   0.00
                               Iterations  =   4
                                  Total H  = 1.110124e+02
                                  Total O  = 5.550622e+01

----------------------------Distribution of species----------------------------

                                               Log       Log       Log    mole V
   Species          Molality    Activity  Molality  Activity     Gamma   cm3/mol

   OH-             1.424e-07   1.341e-07    -6.846    -6.873    -0.026     (0)  
   H+              7.891e-08   7.466e-08    -7.103    -7.127    -0.024      0.00
   H2O             5.551e+01   9.999e-01     1.744    -0.000     0.000     18.07
C(4)          9.188e-08
   HCO3-           7.862e-08   7.414e-08    -7.104    -7.130    -0.025     (0)  
   CO2             1.244e-08   1.245e-08    -7.905    -7.905     0.000     (0)  
   MgHCO3+         7.298e-10   6.873e-10    -9.137    -9.163    -0.026     (0)  
   CO3-2           5.888e-11   4.657e-11   -10.230   -10.332    -0.102     (0)  
   MgCO3           3.519e-11   3.521e-11   -10.454   -10.453     0.000     (0)  
   CaHCO3+         4.321e-14   4.075e-14   -13.364   -13.390    -0.025     (0)  
   CaCO3           3.368e-15   3.371e-15   -14.473   -14.472     0.000     (0)  
Ca            5.449e-08
   Ca+2            5.449e-08   4.308e-08    -7.264    -7.366    -0.102     (0)  
   CaOH+           1.017e-13   9.576e-14   -12.993   -13.019    -0.026     (0)  
   CaHCO3+         4.321e-14   4.075e-14   -13.364   -13.390    -0.025     (0)  
   CaCO3           3.368e-15   3.371e-15   -14.473   -14.472     0.000     (0)  
Cl            2.000e-03
   Cl-             2.000e-03   1.883e-03    -2.699    -2.725    -0.026     (0)  
H(0)          8.118e-11
   H2              4.059e-11   4.062e-11   -10.392   -10.391     0.000     (0)  
Mg            1.000e-03
   Mg+2            9.999e-04   7.923e-04    -3.000    -3.101    -0.101     (0)  
   MgOH+           4.091e-08   3.853e-08    -7.388    -7.414    -0.026     (0)  
   MgHCO3+         7.298e-10   6.873e-10    -9.137    -9.163    -0.026     (0)  
   MgCO3           3.519e-11   3.521e-11   -10.454   -10.453     0.000     (0)  
O(0)          0.000e+00
   O2              0.000e+00   0.000e+00   -71.598   -71.598     0.000     (0)  

------------------------------Saturation indices-------------------------------

	Phase               SI   log IAP   log K(298 K,   1 atm)

	Aragonite        -9.36    -17.70   -8.34  CaCO3
	Calcite          -9.22    -17.70   -8.48  CaCO3
	CO2(g)           -6.44     -7.90   -1.47  CO2
	Dolomite(dis)   -14.04    -31.13  -17.09  CaMg(CO3)2
	H2(g)            -7.20     35.80   43.00  H2
	O2(g)           -68.71    -71.60   -2.89  O2


-----------------------------------------
Beginning of batch-reaction calculations.
-----------------------------------------

Reaction step 1.

Using solution 5.	
Using pure phase assemblage 5.	
Using kinetics 5.	

Kinetics 5.	

	Time step: 100 seconds

	Rate name       Delta Moles Total Moles   Reactant        Coefficient

	Dolomite(dis)    -0.000e+00   0.000e+00   Dolomite(dis)             1

-------------------------------Phase assemblage--------------------------------

                                                      Moles in assemblage
Phase               SI  log IAP  log K(T, P)   Initial       Final       Delta

Calcite          -9.22   -17.70     -8.48    0.000e+00           0   0.000e+00

-----------------------------Solution composition------------------------------

	Elements           Molality       Moles

	C                 9.188e-08   9.188e-08
	Ca                5.449e-08   5.449e-08
	Cl                2.000e-03   2.000e-03
	Mg                1.000e-03   1.000e-03

----------------------------Description of solution----------------------------

                                       pH  =   7.127      Charge balance
                                       pe  =  -3.500      Adjusted to redox equilibrium
                        Activity of water  =   1.000
                           Ionic strength  =   3.000e-03
                       Mass of water (kg)  =   1.000e+00
                 Total alkalinity (eq/kg)  =   1.840e-07
                       Total CO2 (mol/kg)  =   9.188e-08
                      Temperature (deg C)  =  25.00
                  Electrical balance (eq)  =   1.960e-16
 Percent error, 100*(Cat-|An|)/(Cat+|An|)  =   0.00
                               Iterations  =   6
                                  Total H  = 1.110124e+02
                                  Total O  = 5.550622e+01

----------------------------Distribution of species----------------------------

                                               Log       Log       Log    mole V
   Species          Molality    Activity  Molality  Activity     Gamma   cm3/mol

   OH-             1.424e-07   1.341e-07    -6.846    -6.873    -0.026     (0)  
   H+              7.891e-08   7.466e-08    -7.103    -7.127    -0.024      0.00
   H2O             5.551e+01   9.999e-01     1.744    -0.000     0.000     18.07
C(-4)         2.936e-13
   CH4             2.936e-13   2.938e-13   -12.532   -12.532     0.000     (0)  
C(4)          9.188e-08
   HCO3-           7.862e-08   7.414e-08    -7.104    -7.130    -0.025     (0)  
   CO2             1.244e-08   1.245e-08    -7.905    -7.905     0.000     (0)  
   MgHCO3+         7.298e-10   6.873e-10    -9.137    -9.163    -0.026     (0)  
   CO3-2           5.888e-11   4.657e-11   -10.230   -10.332    -0.102     (0)  
   MgCO3           3.519e-11   3.521e-11   -10.454   -10.453     0.000     (0)  
   CaHCO3+         4.321e-14   4.075e-14   -13.364   -13.390    -0.025     (0)  
   CaCO3           3.368e-15   3.371e-15   -14.473   -14.472     0.000     (0)  
Ca            5.449e-08
   Ca+2            5.449e-08   4.308e-08    -7.264    -7.366    -0.102     (0)  
   CaOH+           1.017e-13   9.576e-14   -12.993   -13.019    -0.026     (0)  
   CaHCO3+         4.321e-14   4.075e-14   -13.364   -13.390    -0.025     (0)  
   CaCO3           3.368e-15   3.371e-15   -14.473   -14.472     0.000     (0)  
Cl            2.000e-03
   Cl-             2.000e-03   1.883e-03    -2.699    -2.725    -0.026     (0)  
H(0)          7.877e-11
   H2              3.939e-11   3.941e-11   -10.405   -10.404     0.000     (0)  
Mg            1.000e-03
   Mg+2            9.999e-04   7.923e-04    -3.000    -3.101    -0.101     (0)  
   MgOH+           4.091e-08   3.853e-08    -7.388    -7.414    -0.026     (0)  
   MgHCO3+         7.298e-10   6.873e-10    -9.137    -9.163    -0.026     (0)  
   MgCO3           3.519e-11   3.521e-11   -10.454   -10.453     0.000     (0)  
O(0)          0.000e+00
   O2              0.000e+00   0.000e+00   -71.572   -71.571     0.000     (0)  

------------------------------Saturation indices-------------------------------

	Phase               SI   log IAP   log K(298 K,   1 atm)

	Aragonite        -9.36    -17.70   -8.34  CaCO3
	Calcite          -9.22    -17.70   -8.48  CaCO3
	CH4(g)           -9.69    -12.53   -2.84  CH4
	CO2(g)           -6.44     -7.90   -1.47  CO2
	Dolomite(dis)   -14.04    -31.13  -17.09  CaMg(CO3)2
	H2(g)            -7.21     35.79   43.00  H2
	O2(g)           -68.68    -71.57   -2.89  O2


------------------
End of simulation.
------------------

------------------------------------
Reading input data for simulation 6.
------------------------------------

	SOLUTION 6 #New Version 
	units mol/kgw 
	temp 25.000000 
	C(4)       1.672307941919e-07     # comp 
	Ca       9.858184972642e-08     # comp 
	Mg       9.999857618109e-04     # comp 
	Cl       1.999834015126e-03     # comp 
	pH       7.260348710481e+00 charge        # comp 
	pe       -3.636955443341e+00       # comp 
	EQUILIBRIUM_PHASES   6
	Calcite 0.000000000000e+00  0.000000000000e+00       # comp 
	KINETICS 6
	Dolomite(dis)  # comp
	m 0.000000000000e+00
	steps 1.000000000000e+02 in 1 steps
	RATES 6
	Dolomite(dis)
	  start
	rem kmech = k25*exp(-Eact/R*(1/T-1/298.15))*Product([Ci]^nyi)
	10  R = 8.314472
	11  deltaT = 1/TK - 1/298.15
	12  e = 2.7183
	13  Ea = 36100
	14  logK25 = -3.19
	15  ny = 0.5
	rem 16  mech_a = (10^logK25) * (e^(-Ea/R*deltaT)) * ACT("H+")^ny
	16  mech_a = (10^logK25) * ACT("H+")^ny
	23  Ea = 52200
	24  logK25 = -7.53
	rem 26  mech_b = (10^logK25) * (e^(-Ea/R*deltaT)) 
	26  mech_b = (10^logK25) 
	30  rate = mech_a + mech_b
	40  teta = 1 
	41  eta = 1
	42  Area = 18.75 
	 100
	70  rate = Area * rate * (1 - SR("Dolomite(dis)")^teta)^eta
	80  moles = rate * time
	 rem  140  if (moles > m) then moles = m
	 rem  160  temp = tot("Ca")
	 rem  161  mm = tot("Mg")
	 rem  170  mc  = tot("C(4)")
	 rem  180  if (mc/2 < temp) then temp = mc/2
	 rem  180  if (mm   < temp) then temp = mm
	 rem  190  if -moles > temp then moles = -temp
	200 save moles
	      end
	END
-------------------------------------------
Beginning of initial solution calculations.
-------------------------------------------

Initial solution 6.	

-----------------------------Solution composition------------------------------

	Elements           Molality       Moles

	C(4)              1.672e-07   1.672e-07
	Ca                9.858e-08   9.858e-08
	Cl                2.000e-03   2.000e-03
	Mg                1.000e-03   1.000e-03

----------------------------Description of solution----------------------------

                                       pH  =   7.251      Charge balance
                                       pe  =  -3.637    
                        Activity of water  =   1.000
                           Ionic strength  =   3.000e-03
                       Mass of water (kg)  =   1.000e+00
                 Total alkalinity (eq/kg)  =   3.347e-07
                       Total CO2 (mol/kg)  =   1.672e-07
                      Temperature (deg C)  =  25.00
                  Electrical balance (eq)  =   1.915e-16
 Percent error, 100*(Cat-|An|)/(Cat+|An|)  =   0.00
                               Iterations  =   4
                                  Total H  = 1.110124e+02
                                  Total O  = 5.550622e+01

----------------------------Distribution of species----------------------------

                                               Log       Log       Log    mole V
   Species          Molality    Activity  Molality  Activity     Gamma   cm3/mol

   OH-             1.896e-07   1.785e-07    -6.722    -6.748    -0.026     (0)  
   H+              5.928e-08   5.608e-08    -7.227    -7.251    -0.024      0.00
   H2O             5.551e+01   9.999e-01     1.744    -0.000     0.000     18.07
C(4)          1.672e-07
   HCO3-           1.480e-07   1.396e-07    -6.830    -6.855    -0.025     (0)  
   CO2             1.759e-08   1.760e-08    -7.755    -7.754     0.000     (0)  
   MgHCO3+         1.374e-09   1.294e-09    -8.862    -8.888    -0.026     (0)  
   CO3-2           1.476e-10   1.167e-10    -9.831    -9.933    -0.102     (0)  
   MgCO3           8.819e-11   8.825e-11   -10.055   -10.054     0.000     (0)  
   CaHCO3+         1.472e-13   1.388e-13   -12.832   -12.858    -0.025     (0)  
   CaCO3           1.527e-14   1.528e-14   -13.816   -13.816     0.000     (0)  
Ca            9.858e-08
   Ca+2            9.858e-08   7.794e-08    -7.006    -7.108    -0.102     (0)  
   CaOH+           2.449e-13   2.306e-13   -12.611   -12.637    -0.026     (0)  
   CaHCO3+         1.472e-13   1.388e-13   -12.832   -12.858    -0.025     (0)  
   CaCO3           1.527e-14   1.528e-14   -13.816   -13.816     0.000     (0)  
Cl            2.000e-03
   Cl-             2.000e-03   1.883e-03    -2.699    -2.725    -0.026     (0)  
H(0)          8.362e-11
   H2              4.181e-11   4.184e-11   -10.379   -10.378     0.000     (0)  
Mg            1.000e-03
   Mg+2            9.999e-04   7.923e-04    -3.000    -3.101    -0.101     (0)  
   MgOH+           5.446e-08   5.129e-08    -7.264    -7.290    -0.026     (0)  
   MgHCO3+         1.374e-09   1.294e-09    -8.862    -8.888    -0.026     (0)  
   MgCO3           8.819e-11   8.825e-11   -10.055   -10.054     0.000     (0)  
O(0)          0.000e+00
   O2              0.000e+00   0.000e+00   -71.624   -71.623     0.000     (0)  

------------------------------Saturation indices-------------------------------

	Phase               SI   log IAP   log K(298 K,   1 atm)

	Aragonite        -8.70    -17.04   -8.34  CaCO3
	Calcite          -8.56    -17.04   -8.48  CaCO3
	CO2(g)           -6.29     -7.75   -1.47  CO2
	Dolomite(dis)   -12.98    -30.07  -17.09  CaMg(CO3)2
	H2(g)            -7.19     35.81   43.00  H2
	O2(g)           -68.73    -71.62   -2.89  O2


-----------------------------------------
Beginning of batch-reaction calculations.
-----------------------------------------

Reaction step 1.

Using solution 6.	
Using pure phase assemblage 6.	
Using kinetics 6.	

Kinetics 6.	

	Time step: 100 seconds

	Rate name       Delta Moles Total Moles   Reactant        Coefficient

	Dolomite(dis)    -0.000e+00   0.000e+00   Dolomite(dis)             1

-------------------------------Phase assemblage--------------------------------

                                                      Moles in assemblage
Phase               SI  log IAP  log K(T, P)   Initial       Final       Delta

Calcite          -8.56   -17.04     -8.48    0.000e+00           0   0.000e+00

-----------------------------Solution composition------------------------------

	Elements           Molality       Moles

	C                 1.672e-07   1.672e-07
	Ca                9.858e-08   9.858e-08
	Cl                2.000e-03   2.000e-03
	Mg                1.000e-03   1.000e-03

----------------------------Description of solution----------------------------

                                       pH  =   7.251      Charge balance
                                       pe  =  -3.628      Adjusted to redox equilibrium
                        Activity of water  =   1.000
                           Ionic strength  =   3.000e-03
                       Mass of water (kg)  =   1.000e+00
                 Total alkalinity (eq/kg)  =   3.347e-07
                       Total CO2 (mol/kg)  =   1.672e-07
                      Temperature (deg C)  =  25.00
                  Electrical balance (eq)  =   1.923e-16
 Percent error, 100*(Cat-|An|)/(Cat+|An|)  =   0.00
                               Iterations  =   6
                                  Total H  = 1.110124e+02
                                  Total O  = 5.550622e+01

----------------------------Distribution of species----------------------------

                                               Log       Log       Log    mole V
   Species          Molality    Activity  Molality  Activity     Gamma   cm3/mol

   OH-             1.896e-07   1.785e-07    -6.722    -6.748    -0.026     (0)  
   H+              5.928e-08   5.608e-08    -7.227    -7.251    -0.024      0.00
   H2O             5.551e+01   9.999e-01     1.744    -0.000     0.000     18.07
C(-4)         4.432e-13
   CH4             4.432e-13   4.435e-13   -12.353   -12.353     0.000     (0)  
C(4)          1.672e-07
   HCO3-           1.480e-07   1.396e-07    -6.830    -6.855    -0.025     (0)  
   CO2             1.759e-08   1.760e-08    -7.755    -7.754     0.000     (0)  
   MgHCO3+         1.374e-09   1.294e-09    -8.862    -8.888    -0.026     (0)  
   CO3-2           1.476e-10   1.167e-10    -9.831    -9.933    -0.102     (0)  
   MgCO3           8.819e-11   8.825e-11   -10.055   -10.054     0.000     (0)  
   CaHCO3+         1.472e-13   1.388e-13   -12.832   -12.858    -0.025     (0)  
   CaCO3           1.527e-14   1.528e-14   -13.816   -13.816     0.000     (0)  
Ca            9.858e-08
   Ca+2            9.858e-08   7.794e-08    -7.006    -7.108    -0.102     (0)  
   CaOH+           2.449e-13   2.306e-13   -12.611   -12.637    -0.026     (0)  
   CaHCO3+         1.472e-13   1.388e-13   -12.832   -12.858    -0.025     (0)  
   CaCO3           1.527e-14   1.528e-14   -13.816   -13.816     0.000     (0)  
Cl            2.000e-03
   Cl-             2.000e-03   1.883e-03    -2.699    -2.725    -0.026     (0)  
H(0)          8.007e-11
   H2              4.004e-11   4.006e-11   -10.398   -10.397     0.000     (0)  
Mg            1.000e-03
   Mg+2            9.999e-04   7.923e-04    -3.000    -3.101    -0.101     (0)  
   MgOH+           5.446e-08   5.129e-08    -7.264    -7.290    -0.026     (0)  
   MgHCO3+         1.374e-09   1.294e-09    -8.862    -8.888    -0.026     (0)  
   MgCO3           8.819e-11   8.825e-11   -10.055   -10.054     0.000     (0)  
O(0)          0.000e+00
   O2              0.000e+00   0.000e+00   -71.586   -71.586     0.000     (0)  

------------------------------Saturation indices-------------------------------

	Phase               SI   log IAP   log K(298 K,   1 atm)

	Aragonite        -8.70    -17.04   -8.34  CaCO3
	Calcite          -8.56    -17.04   -8.48  CaCO3
	CH4(g)           -9.51    -12.35   -2.84  CH4
	CO2(g)           -6.29     -7.75   -1.47  CO2
	Dolomite(dis)   -12.98    -30.07  -17.09  CaMg(CO3)2
	H2(g)            -7.21     35.79   43.00  H2
	O2(g)           -68.69    -71.59   -2.89  O2


------------------
End of simulation.
------------------

------------------------------------
Reading input data for simulation 7.
------------------------------------

	SOLUTION 7 #New Version 
	units mol/kgw 
	temp 25.000000 
	C(4)       2.919006954810e-07     # comp 
	Ca       1.709404135657e-07     # comp 
	Mg       9.999824901437e-04     # comp 
	Cl       1.999722843986e-03     # comp 
	pH       7.424793272608e+00 charge        # comp 
	pe       1.050696682145e+01       # comp 
	EQUILIBRIUM_PHASES   7
	Calcite 0.000000000000e+00  0.000000000000e+00       # comp 
	KINETICS 7
	Dolomite(dis)  # comp
	m 0.000000000000e+00
	steps 1.000000000000e+02 in 1 steps
	RATES 7
	Dolomite(dis)
	  start
	rem kmech = k25*exp(-Eact/R*(1/T-1/298.15))*Product([Ci]^nyi)
	10  R = 8.314472
	11  deltaT = 1/TK - 1/298.15
	12  e = 2.7183
	13  Ea = 36100
	14  logK25 = -3.19
	15  ny = 0.5
	rem 16  mech_a = (10^logK25) * (e^(-Ea/R*deltaT)) * ACT("H+")^ny
	16  mech_a = (10^logK25) * ACT("H+")^ny
	23  Ea = 52200
	24  logK25 = -7.53
	rem 26  mech_b = (10^logK25) * (e^(-Ea/R*deltaT)) 
	26  mech_b = (10^logK25) 
	30  rate = mech_a + mech_b
	40  teta = 1 
	41  eta = 1
	42  Area = 18.75 
	 100
	70  rate = Area * rate * (1 - SR("Dolomite(dis)")^teta)^eta
	80  moles = rate * time
	 rem  140  if (moles > m) then moles = m
	 rem  160  temp = tot("Ca")
	 rem  161  mm = tot("Mg")
	 rem  170  mc  = tot("C(4)")
	 rem  180  if (mc/2 < temp) then temp = mc/2
	 rem  180  if (mm   < temp) then temp = mm
	 rem  190  if -moles > temp then moles = -temp
	200 save moles
	      end
	END
-------------------------------------------
Beginning of initial solution calculations.
-------------------------------------------

Initial solution 7.	

-----------------------------Solution composition------------------------------

	Elements           Molality       Moles

	C(4)              2.919e-07   2.919e-07
	Ca                1.709e-07   1.709e-07
	Cl                2.000e-03   2.000e-03
	Mg                1.000e-03   1.000e-03

----------------------------Description of solution----------------------------

                                       pH  =   7.413      Charge balance
                                       pe  =  10.507    
                        Activity of water  =   1.000
                           Ionic strength  =   3.000e-03
                       Mass of water (kg)  =   1.000e+00
                 Total alkalinity (eq/kg)  =   5.840e-07
                       Total CO2 (mol/kg)  =   2.919e-07
                      Temperature (deg C)  =  25.00
                  Electrical balance (eq)  =   1.916e-16
 Percent error, 100*(Cat-|An|)/(Cat+|An|)  =   0.00
                               Iterations  =   4
                                  Total H  = 1.110124e+02
                                  Total O  = 5.550622e+01

----------------------------Distribution of species----------------------------

                                               Log       Log       Log    mole V
   Species          Molality    Activity  Molality  Activity     Gamma   cm3/mol

   OH-             2.752e-07   2.590e-07    -6.560    -6.587    -0.026     (0)  
   H+              4.085e-08   3.865e-08    -7.389    -7.413    -0.024      0.00
   H2O             5.551e+01   9.999e-01     1.744    -0.000     0.000     18.07
C(4)          2.919e-07
   HCO3-           2.669e-07   2.517e-07    -6.574    -6.599    -0.025     (0)  
   CO2             2.186e-08   2.188e-08    -7.660    -7.660     0.000     (0)  
   MgHCO3+         2.478e-09   2.334e-09    -8.606    -8.632    -0.026     (0)  
   CO3-2           3.862e-10   3.055e-10    -9.413    -9.515    -0.102     (0)  
   MgCO3           2.308e-10   2.310e-10    -9.637    -9.636     0.000     (0)  
   CaHCO3+         4.603e-13   4.341e-13   -12.337   -12.362    -0.025     (0)  
   CaCO3           6.931e-14   6.936e-14   -13.159   -13.159     0.000     (0)  
Ca            1.709e-07
   Ca+2            1.709e-07   1.351e-07    -6.767    -6.869    -0.102     (0)  
   CaOH+           6.162e-13   5.803e-13   -12.210   -12.236    -0.026     (0)  
   CaHCO3+         4.603e-13   4.341e-13   -12.337   -12.362    -0.025     (0)  
   CaCO3           6.931e-14   6.936e-14   -13.159   -13.159     0.000     (0)  
Cl            2.000e-03
   Cl-             2.000e-03   1.882e-03    -2.699    -2.725    -0.026     (0)  
H(0)          2.047e-39
   H2              1.023e-39   1.024e-39   -38.990   -38.990     0.000     (0)  
Mg            1.000e-03
   Mg+2            9.999e-04   7.923e-04    -3.000    -3.101    -0.101     (0)  
   MgOH+           7.903e-08   7.443e-08    -7.102    -7.128    -0.026     (0)  
   MgHCO3+         2.478e-09   2.334e-09    -8.606    -8.632    -0.026     (0)  
   MgCO3           2.308e-10   2.310e-10    -9.637    -9.636     0.000     (0)  
O(0)          7.945e-15
   O2              3.973e-15   3.975e-15   -14.401   -14.401     0.000     (0)  

------------------------------Saturation indices-------------------------------

	Phase               SI   log IAP   log K(298 K,   1 atm)

	Aragonite        -8.05    -16.38   -8.34  CaCO3
	Calcite          -7.90    -16.38   -8.48  CaCO3
	CO2(g)           -6.19     -7.66   -1.47  CO2
	Dolomite(dis)   -11.91    -29.00  -17.09  CaMg(CO3)2
	H2(g)           -35.80      7.20   43.00  H2
	O2(g)           -11.51    -14.40   -2.89  O2


-----------------------------------------
Beginning of batch-reaction calculations.
-----------------------------------------

Reaction step 1.

Using solution 7.	
Using pure phase assemblage 7.	
Using kinetics 7.	

Kinetics 7.	

	Time step: 100 seconds

	Rate name       Delta Moles Total Moles   Reactant        Coefficient

	Dolomite(dis)    -0.000e+00   0.000e+00   Dolomite(dis)             1

-------------------------------Phase assemblage--------------------------------

                                                      Moles in assemblage
Phase               SI  log IAP  log K(T, P)   Initial       Final       Delta

Calcite          -7.90   -16.38     -8.48    0.000e+00           0   0.000e+00

-----------------------------Solution composition------------------------------

	Elements           Molality       Moles

	C                 2.919e-07   2.919e-07
	Ca                1.709e-07   1.709e-07
	Cl                2.000e-03   2.000e-03
	Mg                1.000e-03   1.000e-03

----------------------------Description of solution----------------------------

                                       pH  =   7.413      Charge balance
                                       pe  =  10.444      Adjusted to redox equilibrium
                        Activity of water  =   1.000
                           Ionic strength  =   3.000e-03
                       Mass of water (kg)  =   1.000e+00
                 Total alkalinity (eq/kg)  =   5.840e-07
                       Total CO2 (mol/kg)  =   2.919e-07
                      Temperature (deg C)  =  25.00
                  Electrical balance (eq)  =   2.019e-16
 Percent error, 100*(Cat-|An|)/(Cat+|An|)  =   0.00
                               Iterations  =   5
                                  Total H  = 1.110124e+02
                                  Total O  = 5.550622e+01

----------------------------Distribution of species----------------------------

                                               Log       Log       Log    mole V
   Species          Molality    Activity  Molality  Activity     Gamma   cm3/mol

   OH-             2.752e-07   2.590e-07    -6.560    -6.587    -0.026     (0)  
   H+              4.085e-08   3.865e-08    -7.389    -7.413    -0.024      0.00
   H2O             5.551e+01   9.999e-01     1.744    -0.000     0.000     18.07
C(-4)         0.000e+00
   CH4             0.000e+00   0.000e+00  -126.123  -126.123     0.000     (0)  
C(4)          2.919e-07
   HCO3-           2.669e-07   2.517e-07    -6.574    -6.599    -0.025     (0)  
   CO2             2.186e-08   2.188e-08    -7.660    -7.660     0.000     (0)  
   MgHCO3+         2.478e-09   2.334e-09    -8.606    -8.632    -0.026     (0)  
   CO3-2           3.862e-10   3.055e-10    -9.413    -9.515    -0.102     (0)  
   MgCO3           2.308e-10   2.310e-10    -9.637    -9.636     0.000     (0)  
   CaHCO3+         4.603e-13   4.341e-13   -12.337   -12.362    -0.025     (0)  
   CaCO3           6.931e-14   6.936e-14   -13.159   -13.159     0.000     (0)  
Ca            1.709e-07
   Ca+2            1.709e-07   1.351e-07    -6.767    -6.869    -0.102     (0)  
   CaOH+           6.162e-13   5.803e-13   -12.210   -12.236    -0.026     (0)  
   CaHCO3+         4.603e-13   4.341e-13   -12.337   -12.362    -0.025     (0)  
   CaCO3           6.931e-14   6.936e-14   -13.159   -13.159     0.000     (0)  
Cl            2.000e-03
   Cl-             2.000e-03   1.882e-03    -2.699    -2.725    -0.026     (0)  
H(0)          2.738e-39
   H2              1.369e-39   1.370e-39   -38.864   -38.863     0.000     (0)  
Mg            1.000e-03
   Mg+2            9.999e-04   7.923e-04    -3.000    -3.101    -0.101     (0)  
   MgOH+           7.903e-08   7.443e-08    -7.102    -7.128    -0.026     (0)  
   MgHCO3+         2.478e-09   2.334e-09    -8.606    -8.632    -0.026     (0)  
   MgCO3           2.308e-10   2.310e-10    -9.637    -9.636     0.000     (0)  
O(0)          4.439e-15
   O2              2.219e-15   2.221e-15   -14.654   -14.653     0.000     (0)  

------------------------------Saturation indices-------------------------------

	Phase               SI   log IAP   log K(298 K,   1 atm)

	Aragonite        -8.05    -16.38   -8.34  CaCO3
	Calcite          -7.90    -16.38   -8.48  CaCO3
	CH4(g)         -123.28   -126.12   -2.84  CH4
	CO2(g)           -6.19     -7.66   -1.47  CO2
	Dolomite(dis)   -11.91    -29.00  -17.09  CaMg(CO3)2
	H2(g)           -35.67      7.33   43.00  H2
	O2(g)           -11.76    -14.65   -2.89  O2


------------------
End of simulation.
------------------

------------------------------------
Reading input data for simulation 8.
------------------------------------

	SOLUTION 8 #New Version 
	units mol/kgw 
	temp 25.000000 
	C(4)       4.949371055781e-07     # comp 
	Ca       2.877405256750e-07     # comp 
	Mg       9.999843532540e-04     # comp 
	Cl       1.999554091701e-03     # comp 
	pH       7.613515141524e+00 charge        # comp 
	pe       -3.993061454097e+00       # comp 
	EQUILIBRIUM_PHASES   8
	Calcite 0.000000000000e+00  0.000000000000e+00       # comp 
	KINETICS 8
	Dolomite(dis)  # comp
	m 0.000000000000e+00
	steps 1.000000000000e+02 in 1 steps
	RATES 8
	Dolomite(dis)
	  start
	rem kmech = k25*exp(-Eact/R*(1/T-1/298.15))*Product([Ci]^nyi)
	10  R = 8.314472
	11  deltaT = 1/TK - 1/298.15
	12  e = 2.7183
	13  Ea = 36100
	14  logK25 = -3.19
	15  ny = 0.5
	rem 16  mech_a = (10^logK25) * (e^(-Ea/R*deltaT)) * ACT("H+")^ny
	16  mech_a = (10^logK25) * ACT("H+")^ny
	23  Ea = 52200
	24  logK25 = -7.53
	rem 26  mech_b = (10^logK25) * (e^(-Ea/R*deltaT)) 
	26  mech_b = (10^logK25) 
	30  rate = mech_a + mech_b
	40  teta = 1 
	41  eta = 1
	42  Area = 18.75 
	 100
	70  rate = Area * rate * (1 - SR("Dolomite(dis)")^teta)^eta
	80  moles = rate * time
	 rem  140  if (moles > m) then moles = m
	 rem  160  temp = tot("Ca")
	 rem  161  mm = tot("Mg")
	 rem  170  mc  = tot("C(4)")
	 rem  180  if (mc/2 < temp) then temp = mc/2
	 rem  180  if (mm   < temp) then temp = mm
	 rem  190  if -moles > temp then moles = -temp
	200 save moles
	      end
	END
-------------------------------------------
Beginning of initial solution calculations.
-------------------------------------------

Initial solution 8.	

-----------------------------Solution composition------------------------------

	Elements           Molality       Moles

	C(4)              4.949e-07   4.949e-07
	Ca                2.877e-07   2.877e-07
	Cl                2.000e-03   2.000e-03
	Mg                1.000e-03   1.000e-03

----------------------------Description of solution----------------------------

                                       pH  =   7.600      Charge balance
                                       pe  =  -3.993    
                        Activity of water  =   1.000
                           Ionic strength  =   3.001e-03
                       Mass of water (kg)  =   1.000e+00
                 Total alkalinity (eq/kg)  =   9.901e-07
                       Total CO2 (mol/kg)  =   4.949e-07
                      Temperature (deg C)  =  25.00
                  Electrical balance (eq)  =   1.923e-16
 Percent error, 100*(Cat-|An|)/(Cat+|An|)  =   0.00
                               Iterations  =   4
                                  Total H  = 1.110124e+02
                                  Total O  = 5.550622e+01

----------------------------Distribution of species----------------------------

                                               Log       Log       Log    mole V
   Species          Molality    Activity  Molality  Activity     Gamma   cm3/mol

   OH-             4.232e-07   3.984e-07    -6.373    -6.400    -0.026     (0)  
   H+              2.656e-08   2.513e-08    -7.576    -7.600    -0.024      0.00
   H2O             5.551e+01   9.999e-01     1.744    -0.000     0.000     18.07
C(4)          4.949e-07
   HCO3-           4.643e-07   4.378e-07    -6.333    -6.359    -0.025     (0)  
   CO2             2.472e-08   2.474e-08    -7.607    -7.607     0.000     (0)  
   MgHCO3+         4.309e-09   4.058e-09    -8.366    -8.392    -0.026     (0)  
   CO3-2           1.033e-09   8.171e-10    -8.986    -9.088    -0.102     (0)  
   MgCO3           6.173e-10   6.177e-10    -9.209    -9.209     0.000     (0)  
   CaHCO3+         1.347e-12   1.271e-12   -11.870   -11.896    -0.025     (0)  
   CaCO3           3.121e-13   3.123e-13   -12.506   -12.505     0.000     (0)  
Ca            2.877e-07
   Ca+2            2.877e-07   2.275e-07    -6.541    -6.643    -0.102     (0)  
   CaOH+           1.595e-12   1.502e-12   -11.797   -11.823    -0.026     (0)  
   CaHCO3+         1.347e-12   1.271e-12   -11.870   -11.896    -0.025     (0)  
   CaCO3           3.121e-13   3.123e-13   -12.506   -12.505     0.000     (0)  
Cl            2.000e-03
   Cl-             2.000e-03   1.882e-03    -2.699    -2.725    -0.026     (0)  
H(0)          8.652e-11
   H2              4.326e-11   4.329e-11   -10.364   -10.364     0.000     (0)  
Mg            1.000e-03
   Mg+2            9.999e-04   7.922e-04    -3.000    -3.101    -0.101     (0)  
   MgOH+           1.215e-07   1.145e-07    -6.915    -6.941    -0.026     (0)  
   MgHCO3+         4.309e-09   4.058e-09    -8.366    -8.392    -0.026     (0)  
   MgCO3           6.173e-10   6.177e-10    -9.209    -9.209     0.000     (0)  
O(0)          0.000e+00
   O2              0.000e+00   0.000e+00   -71.653   -71.653     0.000     (0)  

------------------------------Saturation indices-------------------------------

	Phase               SI   log IAP   log K(298 K,   1 atm)

	Aragonite        -7.39    -15.73   -8.34  CaCO3
	Calcite          -7.25    -15.73   -8.48  CaCO3
	CO2(g)           -6.14     -7.61   -1.47  CO2
	Dolomite(dis)   -10.83    -27.92  -17.09  CaMg(CO3)2
	H2(g)            -7.17     35.83   43.00  H2
	O2(g)           -68.76    -71.65   -2.89  O2


-----------------------------------------
Beginning of batch-reaction calculations.
-----------------------------------------

Reaction step 1.

Using solution 8.	
Using pure phase assemblage 8.	
Using kinetics 8.	

Kinetics 8.	

	Time step: 100 seconds

	Rate name       Delta Moles Total Moles   Reactant        Coefficient

	Dolomite(dis)    -0.000e+00   0.000e+00   Dolomite(dis)             1

-------------------------------Phase assemblage--------------------------------

                                                      Moles in assemblage
Phase               SI  log IAP  log K(T, P)   Initial       Final       Delta

Calcite          -7.25   -15.73     -8.48    0.000e+00           0   0.000e+00

-----------------------------Solution composition------------------------------

	Elements           Molality       Moles

	C                 4.949e-07   4.949e-07
	Ca                2.877e-07   2.877e-07
	Cl                2.000e-03   2.000e-03
	Mg                1.000e-03   1.000e-03

----------------------------Description of solution----------------------------

                                       pH  =   7.600      Charge balance
                                       pe  =  -3.979      Adjusted to redox equilibrium
                        Activity of water  =   1.000
                           Ionic strength  =   3.001e-03
                       Mass of water (kg)  =   1.000e+00
                 Total alkalinity (eq/kg)  =   9.901e-07
                       Total CO2 (mol/kg)  =   4.949e-07
                      Temperature (deg C)  =  25.00
                  Electrical balance (eq)  =   1.897e-16
 Percent error, 100*(Cat-|An|)/(Cat+|An|)  =   0.00
                               Iterations  =   6
                                  Total H  = 1.110124e+02
                                  Total O  = 5.550622e+01

----------------------------Distribution of species----------------------------

                                               Log       Log       Log    mole V
   Species          Molality    Activity  Molality  Activity     Gamma   cm3/mol

   OH-             4.232e-07   3.984e-07    -6.373    -6.400    -0.026     (0)  
   H+              2.656e-08   2.513e-08    -7.576    -7.600    -0.024      0.00
   H2O             5.551e+01   9.999e-01     1.744    -0.000     0.000     18.07
C(-4)         6.593e-13
   CH4             6.593e-13   6.597e-13   -12.181   -12.181     0.000     (0)  
C(4)          4.949e-07
   HCO3-           4.643e-07   4.378e-07    -6.333    -6.359    -0.025     (0)  
   CO2             2.472e-08   2.474e-08    -7.607    -7.607     0.000     (0)  
   MgHCO3+         4.309e-09   4.058e-09    -8.366    -8.392    -0.026     (0)  
   CO3-2           1.033e-09   8.171e-10    -8.986    -9.088    -0.102     (0)  
   MgCO3           6.173e-10   6.177e-10    -9.209    -9.209     0.000     (0)  
   CaHCO3+         1.347e-12   1.271e-12   -11.870   -11.896    -0.025     (0)  
   CaCO3           3.121e-13   3.123e-13   -12.506   -12.505     0.000     (0)  
Ca            2.877e-07
   Ca+2            2.877e-07   2.275e-07    -6.541    -6.643    -0.102     (0)  
   CaOH+           1.595e-12   1.502e-12   -11.797   -11.823    -0.026     (0)  
   CaHCO3+         1.347e-12   1.271e-12   -11.870   -11.896    -0.025     (0)  
   CaCO3           3.121e-13   3.123e-13   -12.506   -12.505     0.000     (0)  
Cl            2.000e-03
   Cl-             2.000e-03   1.882e-03    -2.699    -2.725    -0.026     (0)  
H(0)          8.122e-11
   H2              4.061e-11   4.064e-11   -10.391   -10.391     0.000     (0)  
Mg            1.000e-03
   Mg+2            9.999e-04   7.922e-04    -3.000    -3.101    -0.101     (0)  
   MgOH+           1.215e-07   1.145e-07    -6.915    -6.941    -0.026     (0)  
   MgHCO3+         4.309e-09   4.058e-09    -8.366    -8.392    -0.026     (0)  
   MgCO3           6.173e-10   6.177e-10    -9.209    -9.209     0.000     (0)  
O(0)          0.000e+00
   O2              0.000e+00   0.000e+00   -71.598   -71.598     0.000     (0)  

------------------------------Saturation indices-------------------------------

	Phase               SI   log IAP   log K(298 K,   1 atm)

	Aragonite        -7.39    -15.73   -8.34  CaCO3
	Calcite          -7.25    -15.73   -8.48  CaCO3
	CH4(g)           -9.34    -12.18   -2.84  CH4
	CO2(g)           -6.14     -7.61   -1.47  CO2
	Dolomite(dis)   -10.83    -27.92  -17.09  CaMg(CO3)2
	H2(g)            -7.20     35.80   43.00  H2
	O2(g)           -68.71    -71.60   -2.89  O2


------------------
End of simulation.
------------------

------------------------------------
Reading input data for simulation 9.
------------------------------------

	SOLUTION 9 #New Version 
	units mol/kgw 
	temp 25.000000 
	C(4)       8.215901818037e-07     # comp 
	Ca       4.738748772321e-07     # comp 
	Mg       9.999995731727e-04     # comp 
	Cl       1.999303487790e-03     # comp 
[...]
Reading input data for simulation 100.
--------------------------------------

	SOLUTION 100 #New Version 
	units mol/kgw 
	temp 25.000000 
	C(4)       1.227217036085e-04     # comp 
	Ca       1.227217045438e-04     # comp 
	Mg       3.045966807218e-12     # comp 
	Cl       6.962586574755e-12     # comp 
	pH       9.909703054518e+00 charge        # comp 
	pe       -5.106351238605e+00       # comp 
	EQUILIBRIUM_PHASES   100
	Calcite 0.000000000000e+00  1.220004999997e-04       # comp 
	KINETICS 100
	Dolomite(dis)  # comp
	m 0.000000000000e+00
	steps 1.000000000000e+02 in 1 steps
	RATES 100
	Dolomite(dis)
	  start
	rem kmech = k25*exp(-Eact/R*(1/T-1/298.15))*Product([Ci]^nyi)
	10  R = 8.314472
	11  deltaT = 1/TK - 1/298.15
	12  e = 2.7183
	13  Ea = 36100
	14  logK25 = -3.19
	15  ny = 0.5
	rem 16  mech_a = (10^logK25) * (e^(-Ea/R*deltaT)) * ACT("H+")^ny
	16  mech_a = (10^logK25) * ACT("H+")^ny
	23  Ea = 52200
	24  logK25 = -7.53
	rem 26  mech_b = (10^logK25) * (e^(-Ea/R*deltaT)) 
	26  mech_b = (10^logK25) 
	30  rate = mech_a + mech_b
	40  teta = 1 
	41  eta = 1
	42  Area = 18.75 
	 100
	70  rate = Area * rate * (1 - SR("Dolomite(dis)")^teta)^eta
	80  moles = rate * time
	 rem  140  if (moles > m) then moles = m
	 rem  160  temp = tot("Ca")
	 rem  161  mm = tot("Mg")
	 rem  170  mc  = tot("C(4)")
	 rem  180  if (mc/2 < temp) then temp = mc/2
	 rem  180  if (mm   < temp) then temp = mm
	 rem  190  if -moles > temp then moles = -temp
	200 save moles
	      end
	END
-------------------------------------------
Beginning of initial solution calculations.
-------------------------------------------

Initial solution 100.	

-----------------------------Solution composition------------------------------

	Elements           Molality       Moles

	C(4)              1.227e-04   1.227e-04
	Ca                1.227e-04   1.227e-04
	Cl                6.963e-12   6.963e-12
	Mg                3.046e-12   3.046e-12

----------------------------Description of solution----------------------------

                                       pH  =   9.910      Charge balance
                                       pe  =  -5.106    
                        Activity of water  =   1.000
                           Ionic strength  =   3.848e-04
                       Mass of water (kg)  =   1.000e+00
                 Total alkalinity (eq/kg)  =   2.454e-04
                       Total CO2 (mol/kg)  =   1.227e-04
                      Temperature (deg C)  =  25.00
                  Electrical balance (eq)  =  -1.762e-19
 Percent error, 100*(Cat-|An|)/(Cat+|An|)  =  -0.00
                               Iterations  =   4
                                  Total H  = 1.110126e+02
                                  Total O  = 5.550667e+01

----------------------------Distribution of species----------------------------

                                               Log       Log       Log    mole V
   Species          Molality    Activity  Molality  Activity     Gamma   cm3/mol

   OH-             8.317e-05   8.131e-05    -4.080    -4.090    -0.010     (0)  
   H+              1.258e-10   1.231e-10    -9.900    -9.910    -0.009      0.00
   H2O             5.551e+01   1.000e+00     1.744    -0.000     0.000     18.07
C(4)          1.227e-04
   HCO3-           8.316e-05   8.133e-05    -4.080    -4.090    -0.010     (0)  
   CO3-2           3.386e-05   3.098e-05    -4.470    -4.509    -0.039     (0)  
   CaCO3           5.564e-06   5.565e-06    -5.255    -5.255     0.000     (0)  
   CaHCO3+         1.134e-07   1.109e-07    -6.945    -6.955    -0.010     (0)  
   CO2             2.251e-08   2.251e-08    -7.648    -7.648     0.000     (0)  
   MgCO3           7.805e-14   7.806e-14   -13.108   -13.108     0.000     (0)  
   MgHCO3+         2.570e-15   2.513e-15   -14.590   -14.600    -0.010     (0)  
Ca            1.227e-04
   Ca+2            1.169e-04   1.069e-04    -3.932    -3.971    -0.039     (0)  
   CaCO3           5.564e-06   5.565e-06    -5.255    -5.255     0.000     (0)  
   CaOH+           1.474e-07   1.441e-07    -6.831    -6.841    -0.010     (0)  
   CaHCO3+         1.134e-07   1.109e-07    -6.945    -6.955    -0.010     (0)  
Cl            6.963e-12
   Cl-             6.963e-12   6.808e-12   -11.157   -11.167    -0.010     (0)  
H(0)          3.502e-13
   H2              1.751e-13   1.751e-13   -12.757   -12.757     0.000     (0)  
Mg            3.046e-12
   Mg+2            2.886e-12   2.640e-12   -11.540   -11.578    -0.039     (0)  
   MgOH+           7.964e-14   7.787e-14   -13.099   -13.109    -0.010     (0)  
   MgCO3           7.805e-14   7.806e-14   -13.108   -13.108     0.000     (0)  
   MgHCO3+         2.570e-15   2.513e-15   -14.590   -14.600    -0.010     (0)  
O(0)          0.000e+00
   O2              0.000e+00   0.000e+00   -66.867   -66.867     0.000     (0)  

------------------------------Saturation indices-------------------------------

	Phase               SI   log IAP   log K(298 K,   1 atm)

	Aragonite        -0.14     -8.48   -8.34  CaCO3
	Calcite           0.00     -8.48   -8.48  CaCO3
	CO2(g)           -6.18     -7.65   -1.47  CO2
	Dolomite(dis)    -7.48    -24.57  -17.09  CaMg(CO3)2
	H2(g)            -9.56     33.43   43.00  H2
	O2(g)           -63.97    -66.87   -2.89  O2


-----------------------------------------
Beginning of batch-reaction calculations.
-----------------------------------------

Reaction step 1.

Using solution 100.	
Using pure phase assemblage 100.	
Using kinetics 100.	

Kinetics 100.	

	Time step: 100 seconds

	Rate name       Delta Moles Total Moles   Reactant        Coefficient

	Dolomite(dis)    -0.000e+00   0.000e+00   Dolomite(dis)             1

-------------------------------Phase assemblage--------------------------------

                                                      Moles in assemblage
Phase               SI  log IAP  log K(T, P)   Initial       Final       Delta

Calcite           0.00    -8.48     -8.48    1.220e-04   1.220e-04   4.197e-17

-----------------------------Solution composition------------------------------

	Elements           Molality       Moles

	C                 1.227e-04   1.227e-04
	Ca                1.227e-04   1.227e-04
	Cl                6.963e-12   6.963e-12
	Mg                3.046e-12   3.046e-12

----------------------------Description of solution----------------------------

                                       pH  =   9.910      Charge balance
                                       pe  =  -5.109      Adjusted to redox equilibrium
                        Activity of water  =   1.000
                           Ionic strength  =   3.848e-04
                       Mass of water (kg)  =   1.000e+00
                 Total alkalinity (eq/kg)  =   2.454e-04
                       Total CO2 (mol/kg)  =   1.227e-04
                      Temperature (deg C)  =  25.00
                  Electrical balance (eq)  =  -8.132e-20
 Percent error, 100*(Cat-|An|)/(Cat+|An|)  =  -0.00
                               Iterations  =   5
                                  Total H  = 1.110126e+02
                                  Total O  = 5.550667e+01

----------------------------Distribution of species----------------------------

                                               Log       Log       Log    mole V
   Species          Molality    Activity  Molality  Activity     Gamma   cm3/mol

   OH-             8.317e-05   8.131e-05    -4.080    -4.090    -0.010     (0)  
   H+              1.258e-10   1.231e-10    -9.900    -9.910    -0.009      0.00
   H2O             5.551e+01   1.000e+00     1.744    -0.000     0.000     18.07
C(-4)         2.189e-22
   CH4             2.189e-22   2.189e-22   -21.660   -21.660     0.000     (0)  
C(4)          1.227e-04
   HCO3-           8.316e-05   8.133e-05    -4.080    -4.090    -0.010     (0)  
   CO3-2           3.386e-05   3.098e-05    -4.470    -4.509    -0.039     (0)  
   CaCO3           5.564e-06   5.565e-06    -5.255    -5.255     0.000     (0)  
   CaHCO3+         1.134e-07   1.109e-07    -6.945    -6.955    -0.010     (0)  
   CO2             2.251e-08   2.251e-08    -7.648    -7.648     0.000     (0)  
   MgCO3           7.805e-14   7.806e-14   -13.108   -13.108     0.000     (0)  
   MgHCO3+         2.570e-15   2.513e-15   -14.590   -14.600    -0.010     (0)  
Ca            1.227e-04
   Ca+2            1.169e-04   1.069e-04    -3.932    -3.971    -0.039     (0)  
   CaCO3           5.564e-06   5.565e-06    -5.255    -5.255     0.000     (0)  
   CaOH+           1.474e-07   1.441e-07    -6.831    -6.841    -0.010     (0)  
   CaHCO3+         1.134e-07   1.109e-07    -6.945    -6.955    -0.010     (0)  
Cl            6.963e-12
   Cl-             6.963e-12   6.808e-12   -11.157   -11.167    -0.010     (0)  
H(0)          3.551e-13
   H2              1.776e-13   1.776e-13   -12.751   -12.751     0.000     (0)  
Mg            3.046e-12
   Mg+2            2.886e-12   2.640e-12   -11.540   -11.578    -0.039     (0)  
   MgOH+           7.964e-14   7.787e-14   -13.099   -13.109    -0.010     (0)  
   MgCO3           7.805e-14   7.806e-14   -13.108   -13.108     0.000     (0)  
   MgHCO3+         2.570e-15   2.513e-15   -14.590   -14.600    -0.010     (0)  
O(0)          0.000e+00
   O2              0.000e+00   0.000e+00   -66.879   -66.879     0.000     (0)  

------------------------------Saturation indices-------------------------------

	Phase               SI   log IAP   log K(298 K,   1 atm)

	Aragonite        -0.14     -8.48   -8.34  CaCO3
	Calcite           0.00     -8.48   -8.48  CaCO3
	CH4(g)          -18.82    -21.66   -2.84  CH4
	CO2(g)           -6.18     -7.65   -1.47  CO2
	Dolomite(dis)    -7.48    -24.57  -17.09  CaMg(CO3)2
	H2(g)            -9.56     33.44   43.00  H2
	O2(g)           -63.99    -66.88   -2.89  O2


------------------
End of simulation.
------------------

--------------------------------------
Reading input data for simulation 101.
--------------------------------------

	SOLUTION 101 #New Version 
	units mol/kgw 
	temp 25.000000 
	C(4)       1.227217036708e-04     # comp 
	Ca       1.227217043730e-04     # comp 
	Mg       2.543217542723e-12     # comp 
	Cl       5.490993092434e-12     # comp 
	pH       9.909703054767e+00 charge        # comp 
	pe       -5.074403958709e+00       # comp 
	EQUILIBRIUM_PHASES   101
	Calcite 0.000000000000e+00  1.220005000000e-04       # comp 
	KINETICS 101
	Dolomite(dis)  # comp
	m 0.000000000000e+00
	steps 1.000000000000e+02 in 1 steps
	RATES 101
	Dolomite(dis)
	  start
	rem kmech = k25*exp(-Eact/R*(1/T-1/298.15))*Product([Ci]^nyi)
	10  R = 8.314472
	11  deltaT = 1/TK - 1/298.15
	12  e = 2.7183
	13  Ea = 36100
	14  logK25 = -3.19
	15  ny = 0.5
	rem 16  mech_a = (10^logK25) * (e^(-Ea/R*deltaT)) * ACT("H+")^ny
	16  mech_a = (10^logK25) * ACT("H+")^ny
	23  Ea = 52200
	24  logK25 = -7.53
	rem 26  mech_b = (10^logK25) * (e^(-Ea/R*deltaT)) 
	26  mech_b = (10^logK25) 
	30  rate = mech_a + mech_b
	40  teta = 1 
	41  eta = 1
	42  Area = 18.75 
	 100
	70  rate = Area * rate * (1 - SR("Dolomite(dis)")^teta)^eta
	80  moles = rate * time
	 rem  140  if (moles > m) then moles = m
	 rem  160  temp = tot("Ca")
	 rem  161  mm = tot("Mg")
	 rem  170  mc  = tot("C(4)")
	 rem  180  if (mc/2 < temp) then temp = mc/2
	 rem  180  if (mm   < temp) then temp = mm
	 rem  190  if -moles > temp then moles = -temp
	200 save moles
	      end
	END
-------------------------------------------
Beginning of initial solution calculations.
-------------------------------------------

Initial solution 101.	

-----------------------------Solution composition------------------------------

	Elements           Molality       Moles

	C(4)              1.227e-04   1.227e-04
	Ca                1.227e-04   1.227e-04
	Cl                5.491e-12   5.491e-12
	Mg                2.543e-12   2.543e-12

----------------------------Description of solution----------------------------

                                       pH  =   9.910      Charge balance
                                       pe  =  -5.074    
                        Activity of water  =   1.000
                           Ionic strength  =   3.848e-04
                       Mass of water (kg)  =   1.000e+00
                 Total alkalinity (eq/kg)  =   2.454e-04
                       Total CO2 (mol/kg)  =   1.227e-04
                      Temperature (deg C)  =  25.00
                  Electrical balance (eq)  =   8.132e-20
 Percent error, 100*(Cat-|An|)/(Cat+|An|)  =   0.00
                               Iterations  =   4
                                  Total H  = 1.110126e+02
                                  Total O  = 5.550667e+01

----------------------------Distribution of species----------------------------

                                               Log       Log       Log    mole V
   Species          Molality    Activity  Molality  Activity     Gamma   cm3/mol

   OH-             8.317e-05   8.131e-05    -4.080    -4.090    -0.010     (0)  
   H+              1.258e-10   1.231e-10    -9.900    -9.910    -0.009      0.00
   H2O             5.551e+01   1.000e+00     1.744    -0.000     0.000     18.07
C(4)          1.227e-04
   HCO3-           8.316e-05   8.133e-05    -4.080    -4.090    -0.010     (0)  
   CO3-2           3.386e-05   3.098e-05    -4.470    -4.509    -0.039     (0)  
   CaCO3           5.564e-06   5.565e-06    -5.255    -5.255     0.000     (0)  
   CaHCO3+         1.134e-07   1.109e-07    -6.945    -6.955    -0.010     (0)  
   CO2             2.251e-08   2.251e-08    -7.648    -7.648     0.000     (0)  
   MgCO3           6.517e-14   6.517e-14   -13.186   -13.186     0.000     (0)  
   MgHCO3+         2.146e-15   2.098e-15   -14.668   -14.678    -0.010     (0)  
Ca            1.227e-04
   Ca+2            1.169e-04   1.069e-04    -3.932    -3.971    -0.039     (0)  
   CaCO3           5.564e-06   5.565e-06    -5.255    -5.255     0.000     (0)  
   CaOH+           1.474e-07   1.441e-07    -6.831    -6.841    -0.010     (0)  
   CaHCO3+         1.134e-07   1.109e-07    -6.945    -6.955    -0.010     (0)  
Cl            5.491e-12
   Cl-             5.491e-12   5.369e-12   -11.260   -11.270    -0.010     (0)  
H(0)          3.023e-13
   H2              1.511e-13   1.511e-13   -12.821   -12.821     0.000     (0)  
Mg            2.543e-12
   Mg+2            2.409e-12   2.205e-12   -11.618   -11.657    -0.039     (0)  
   MgOH+           6.650e-14   6.502e-14   -13.177   -13.187    -0.010     (0)  
   MgCO3           6.517e-14   6.517e-14   -13.186   -13.186     0.000     (0)  
   MgHCO3+         2.146e-15   2.098e-15   -14.668   -14.678    -0.010     (0)  
O(0)          0.000e+00
   O2              0.000e+00   0.000e+00   -66.739   -66.739     0.000     (0)  

------------------------------Saturation indices-------------------------------

	Phase               SI   log IAP   log K(298 K,   1 atm)

	Aragonite        -0.14     -8.48   -8.34  CaCO3
	Calcite          -0.00     -8.48   -8.48  CaCO3
	CO2(g)           -6.18     -7.65   -1.47  CO2
	Dolomite(dis)    -7.56    -24.65  -17.09  CaMg(CO3)2
	H2(g)            -9.63     33.37   43.00  H2
	O2(g)           -63.85    -66.74   -2.89  O2


-----------------------------------------
Beginning of batch-reaction calculations.
-----------------------------------------

Reaction step 1.

Using solution 101.	
Using pure phase assemblage 101.	
Using kinetics 101.	

Kinetics 101.	

	Time step: 100 seconds

	Rate name       Delta Moles Total Moles   Reactant        Coefficient

	Dolomite(dis)    -0.000e+00   0.000e+00   Dolomite(dis)             1

-------------------------------Phase assemblage--------------------------------

                                                      Moles in assemblage
Phase               SI  log IAP  log K(T, P)   Initial       Final       Delta

Calcite           0.00    -8.48     -8.48    1.220e-04   1.220e-04  -3.456e-17

-----------------------------Solution composition------------------------------

	Elements           Molality       Moles

	C                 1.227e-04   1.227e-04
	Ca                1.227e-04   1.227e-04
	Cl                5.491e-12   5.491e-12
	Mg                2.543e-12   2.543e-12

----------------------------Description of solution----------------------------

                                       pH  =   9.910      Charge balance
                                       pe  =  -5.085      Adjusted to redox equilibrium
                        Activity of water  =   1.000
                           Ionic strength  =   3.848e-04
                       Mass of water (kg)  =   1.000e+00
                 Total alkalinity (eq/kg)  =   2.454e-04
                       Total CO2 (mol/kg)  =   1.227e-04
                      Temperature (deg C)  =  25.00
                  Electrical balance (eq)  =   2.033e-19
 Percent error, 100*(Cat-|An|)/(Cat+|An|)  =   0.00
                               Iterations  =   5
                                  Total H  = 1.110126e+02
                                  Total O  = 5.550667e+01

----------------------------Distribution of species----------------------------

                                               Log       Log       Log    mole V
   Species          Molality    Activity  Molality  Activity     Gamma   cm3/mol

   OH-             8.317e-05   8.131e-05    -4.080    -4.090    -0.010     (0)  
   H+              1.258e-10   1.231e-10    -9.900    -9.910    -0.009      0.00
   H2O             5.551e+01   1.000e+00     1.744    -0.000     0.000     18.07
C(-4)         1.398e-22
   CH4             1.398e-22   1.398e-22   -21.854   -21.854     0.000     (0)  
C(4)          1.227e-04
   HCO3-           8.316e-05   8.133e-05    -4.080    -4.090    -0.010     (0)  
   CO3-2           3.386e-05   3.098e-05    -4.470    -4.509    -0.039     (0)  
   CaCO3           5.564e-06   5.565e-06    -5.255    -5.255     0.000     (0)  
   CaHCO3+         1.134e-07   1.109e-07    -6.945    -6.955    -0.010     (0)  
   CO2             2.251e-08   2.251e-08    -7.648    -7.648     0.000     (0)  
   MgCO3           6.517e-14   6.517e-14   -13.186   -13.186     0.000     (0)  
   MgHCO3+         2.146e-15   2.098e-15   -14.668   -14.678    -0.010     (0)  
Ca            1.227e-04
   Ca+2            1.169e-04   1.069e-04    -3.932    -3.971    -0.039     (0)  
   CaCO3           5.564e-06   5.565e-06    -5.255    -5.255     0.000     (0)  
   CaOH+           1.474e-07   1.441e-07    -6.831    -6.841    -0.010     (0)  
   CaHCO3+         1.134e-07   1.109e-07    -6.945    -6.955    -0.010     (0)  
Cl            5.491e-12
   Cl-             5.491e-12   5.369e-12   -11.260   -11.270    -0.010     (0)  
H(0)          3.175e-13
   H2              1.587e-13   1.588e-13   -12.799   -12.799     0.000     (0)  
Mg            2.543e-12
   Mg+2            2.409e-12   2.205e-12   -11.618   -11.657    -0.039     (0)  
   MgOH+           6.650e-14   6.502e-14   -13.177   -13.187    -0.010     (0)  
   MgCO3           6.517e-14   6.517e-14   -13.186   -13.186     0.000     (0)  
   MgHCO3+         2.146e-15   2.098e-15   -14.668   -14.678    -0.010     (0)  
O(0)          0.000e+00
   O2              0.000e+00   0.000e+00   -66.782   -66.781     0.000     (0)  

------------------------------Saturation indices-------------------------------

	Phase               SI   log IAP   log K(298 K,   1 atm)

	Aragonite        -0.14     -8.48   -8.34  CaCO3
	Calcite           0.00     -8.48   -8.48  CaCO3
	CH4(g)          -19.01    -21.85   -2.84  CH4
	CO2(g)           -6.18     -7.65   -1.47  CO2
	Dolomite(dis)    -7.56    -24.65  -17.09  CaMg(CO3)2
	H2(g)            -9.61     33.39   43.00  H2
	O2(g)           -63.89    -66.78   -2.89  O2


------------------
End of simulation.
------------------

--------------------------------------
Reading input data for simulation 102.
--------------------------------------

------------------------------
End of Run after 0.32 Seconds.
------------------------------

