   Input file: phinp.dat
  Output file: phinp.out
Database file: phreeqc.dat

------------------
Reading data base.
------------------

	SOLUTION_MASTER_SPECIES
	SOLUTION_SPECIES
	PHASES
	EXCHANGE_MASTER_SPECIES
	EXCHANGE_SPECIES
	SURFACE_MASTER_SPECIES
	SURFACE_SPECIES
	RATES
------------------------------------
Reading input data for simulation 1.
------------------------------------

	SOLUTION 1 #New Version 
	units mol/kgw 
	temp 25.000000 
	Ca       0.000000000000e+00     # comp 
	Na       1.000000000000e-03     # comp 
	Cl       1.000000000000e-03     # comp 
	C(4)       1.000000000000e+00     # comp 
	pH       3.179195830712e+00 charge        # comp 
	pe       1.733770893802e+00       # comp 
	EQUILIBRIUM_PHASES   1
	Calcite 0.000000000000e+00  0.000000000000e+00       # comp 
	PRINT
	 reset true
	 selected_output true
	SELECTED_OUTPUT
	file phout_sel.dat
	high_precision
	reset false
	USER_PUNCH
	heading  Ca Na Cl C(4) pH  H+  pe  Calcite
	 10 PUNCH  TOT("Ca"), TOT("Na"), TOT("Cl"), TOT("C(4)"),
	 20 PUNCH  -LA("H+"),  MOL("H+"),   -LA("e-")
	 40 PUNCH  EQUI("Calcite"),
	END
-------------------------------------------
Beginning of initial solution calculations.
-------------------------------------------

Initial solution 1.	

-----------------------------Solution composition------------------------------

	Elements           Molality       Moles

	C(4)              1.000e+00   1.000e+00
	Cl                1.000e-03   1.000e-03
	Na                1.000e-03   1.000e-03

----------------------------Description of solution----------------------------

                                       pH  =   3.179      Charge balance
                                       pe  =   1.734    
                        Activity of water  =   0.983
                           Ionic strength  =   1.691e-03
                       Mass of water (kg)  =   1.000e+00
                 Total alkalinity (eq/kg)  =   6.104e-19
                       Total CO2 (mol/kg)  =   1.000e+00
                      Temperature (deg C)  =  25.00
                  Electrical balance (eq)  =   2.371e-18
 Percent error, 100*(Cat-|An|)/(Cat+|An|)  =   0.00
                               Iterations  =   7
                                  Total H  = 1.110138e+02
                                  Total O  = 5.750691e+01

----------------------------Distribution of species----------------------------

                                               Log       Log       Log    mole V
   Species          Molality    Activity  Molality  Activity     Gamma   cm3/mol

   H+              6.910e-04   6.619e-04    -3.160    -3.179    -0.019      0.00
   OH-             1.557e-11   1.487e-11   -10.808   -10.828    -0.020     (0)  
   H2O             5.551e+01   9.830e-01     1.744    -0.007     0.000     18.07
C(4)          1.000e+00
   CO2             9.993e-01   9.997e-01    -0.000    -0.000     0.000     (0)  
   HCO3-           6.907e-04   6.603e-04    -3.161    -3.180    -0.020     (0)  
   NaHCO3          3.545e-07   3.547e-07    -6.450    -6.450     0.000     (0)  
   CO3-2           5.601e-11   4.678e-11   -10.252   -10.330    -0.078     (0)  
   NaCO3-          8.710e-13   8.321e-13   -12.060   -12.080    -0.020     (0)  
Cl            1.000e-03
   Cl-             1.000e-03   9.550e-04    -3.000    -3.020    -0.020     (0)  
H(0)          2.113e-13
   H2              1.057e-13   1.057e-13   -12.976   -12.976     0.000     (0)  
Na            1.000e-03
   Na+             9.996e-04   9.552e-04    -3.000    -3.020    -0.020     (0)  
   NaHCO3          3.545e-07   3.547e-07    -6.450    -6.450     0.000     (0)  
   NaCO3-          8.710e-13   8.321e-13   -12.060   -12.080    -0.020     (0)  
   NaOH            9.368e-15   9.371e-15   -14.028   -14.028     0.000     (0)  
O(0)          0.000e+00
   O2              0.000e+00   0.000e+00   -66.443   -66.443     0.000     (0)  

------------------------------Saturation indices-------------------------------

	Phase               SI   log IAP   log K(298 K,   1 atm)

	CO2(g)            1.47     -0.00   -1.47  CO2
	H2(g)            -9.78     33.21   43.00  H2
	O2(g)           -63.55    -66.44   -2.89  O2


-----------------------------------------
Beginning of batch-reaction calculations.
-----------------------------------------

Reaction step 1.

WARNING: Element Ca is contained in Calcite (which has 0.0 mass),	
but is not in solution or other phases.
Using solution 1.	
Using pure phase assemblage 1.	

-------------------------------Phase assemblage--------------------------------

                                                      Moles in assemblage
Phase               SI  log IAP  log K(T, P)   Initial       Final       Delta

Calcite              Element not present.    0.000e+00           0   0.000e+00

-----------------------------Solution composition------------------------------

	Elements           Molality       Moles

	C                 1.000e+00   1.000e+00
	Cl                1.000e-03   1.000e-03
	Na                1.000e-03   1.000e-03

----------------------------Description of solution----------------------------

                                       pH  =   3.179      Charge balance
                                       pe  =   1.734      Adjusted to redox equilibrium
                        Activity of water  =   0.983
                           Ionic strength  =   1.691e-03
                       Mass of water (kg)  =   1.000e+00
                 Total alkalinity (eq/kg)  =   6.104e-19
                       Total CO2 (mol/kg)  =   1.000e+00
                      Temperature (deg C)  =  25.00
                  Electrical balance (eq)  =   2.371e-18
 Percent error, 100*(Cat-|An|)/(Cat+|An|)  =   0.00
                               Iterations  =   1
                                  Total H  = 1.110138e+02
                                  Total O  = 5.750691e+01

----------------------------Distribution of species----------------------------

                                               Log       Log       Log    mole V
   Species          Molality    Activity  Molality  Activity     Gamma   cm3/mol

   H+              6.910e-04   6.619e-04    -3.160    -3.179    -0.019      0.00
   OH-             1.557e-11   1.487e-11   -10.808   -10.828    -0.020     (0)  
   H2O             5.551e+01   9.830e-01     1.744    -0.007     0.000     18.07
C(-4)         1.262e-15
   CH4             1.262e-15   1.263e-15   -14.899   -14.899     0.000     (0)  
C(4)          1.000e+00
   CO2             9.993e-01   9.997e-01    -0.000    -0.000     0.000     (0)  
   HCO3-           6.907e-04   6.603e-04    -3.161    -3.180    -0.020     (0)  
   NaHCO3          3.545e-07   3.547e-07    -6.450    -6.450     0.000     (0)  
   CO3-2           5.601e-11   4.678e-11   -10.252   -10.330    -0.078     (0)  
   NaCO3-          8.710e-13   8.321e-13   -12.060   -12.080    -0.020     (0)  
Cl            1.000e-03
   Cl-             1.000e-03   9.550e-04    -3.000    -3.020    -0.020     (0)  
H(0)          2.113e-13
   H2              1.057e-13   1.057e-13   -12.976   -12.976     0.000     (0)  
Na            1.000e-03
   Na+             9.996e-04   9.552e-04    -3.000    -3.020    -0.020     (0)  
   NaHCO3          3.545e-07   3.547e-07    -6.450    -6.450     0.000     (0)  
   NaCO3-          8.710e-13   8.321e-13   -12.060   -12.080    -0.020     (0)  
   NaOH            9.368e-15   9.371e-15   -14.028   -14.028     0.000     (0)  
O(0)          0.000e+00
   O2              0.000e+00   0.000e+00   -66.443   -66.443     0.000     (0)  

------------------------------Saturation indices-------------------------------

	Phase               SI   log IAP   log K(298 K,   1 atm)

	CH4(g)          -12.06    -14.90   -2.84  CH4
	CO2(g)            1.47     -0.00   -1.47  CO2
	H2(g)            -9.78     33.21   43.00  H2
	O2(g)           -63.55    -66.44   -2.89  O2


------------------
End of simulation.
------------------

------------------------------------
Reading input data for simulation 2.
------------------------------------

	SOLUTION 2 #New Version 
	units mol/kgw 
	temp 25.000000 
	Ca       3.393172363524e-05     # comp 
	Na       9.999993582027e-04     # comp 
	Cl       9.999993582026e-04     # comp 
	C(4)       1.000033289926e+00     # comp 
	pH       3.200393324728e+00 charge        # comp 
	pe       1.720401287054e+00       # comp 
	EQUILIBRIUM_PHASES   2
	Calcite 0.000000000000e+00  0.000000000000e+00       # comp 
	END
-------------------------------------------
Beginning of initial solution calculations.
-------------------------------------------

Initial solution 2.	

-----------------------------Solution composition------------------------------

	Elements           Molality       Moles

	C(4)              1.000e+00   1.000e+00
	Ca                3.393e-05   3.393e-05
	Cl                1.000e-03   1.000e-03
	Na                1.000e-03   1.000e-03

----------------------------Description of solution----------------------------

                                       pH  =   3.200      Charge balance
                                       pe  =   1.720    
                        Activity of water  =   0.983
                           Ionic strength  =   1.760e-03
                       Mass of water (kg)  =   1.000e+00
                 Total alkalinity (eq/kg)  =   6.786e-05
                       Total CO2 (mol/kg)  =   1.000e+00
                      Temperature (deg C)  =  25.00
                  Electrical balance (eq)  =   7.031e-19
 Percent error, 100*(Cat-|An|)/(Cat+|An|)  =   0.00
                               Iterations  =  11
                                  Total H  = 1.110138e+02
                                  Total O  = 5.750701e+01

----------------------------Distribution of species----------------------------

                                               Log       Log       Log    mole V
   Species          Molality    Activity  Molality  Activity     Gamma   cm3/mol

   H+              6.586e-04   6.304e-04    -3.181    -3.200    -0.019      0.00
   OH-             1.636e-11   1.561e-11   -10.786   -10.807    -0.020     (0)  
   H2O             5.551e+01   9.830e-01     1.744    -0.007     0.000     18.07
C(4)          1.000e+00
   CO2             9.993e-01   9.997e-01    -0.000    -0.000     0.000     (0)  
   HCO3-           7.259e-04   6.933e-04    -3.139    -3.159    -0.020     (0)  
   NaHCO3          3.719e-07   3.721e-07    -6.430    -6.429     0.000     (0)  
   CaHCO3+         2.595e-07   2.479e-07    -6.586    -6.606    -0.020     (0)  
   CO3-2           6.196e-11   5.158e-11   -10.208   -10.288    -0.080     (0)  
   CaCO3           2.427e-12   2.428e-12   -11.615   -11.615     0.000     (0)  
   NaCO3-          9.604e-13   9.166e-13   -12.018   -12.038    -0.020     (0)  
Ca            3.393e-05
   Ca+2            3.367e-05   2.802e-05    -4.473    -4.552    -0.080     (0)  
   CaHCO3+         2.595e-07   2.479e-07    -6.586    -6.606    -0.020     (0)  
   CaCO3           2.427e-12   2.428e-12   -11.615   -11.615     0.000     (0)  
   CaOH+           7.598e-15   7.252e-15   -14.119   -14.140    -0.020     (0)  
Cl            1.000e-03
   Cl-             1.000e-03   9.541e-04    -3.000    -3.020    -0.020     (0)  
H(0)          2.038e-13
   H2              1.019e-13   1.020e-13   -12.992   -12.992     0.000     (0)  
Na            1.000e-03
   Na+             9.996e-04   9.543e-04    -3.000    -3.020    -0.020     (0)  
   NaHCO3          3.719e-07   3.721e-07    -6.430    -6.429     0.000     (0)  
   NaCO3-          9.604e-13   9.166e-13   -12.018   -12.038    -0.020     (0)  
   NaOH            9.828e-15   9.832e-15   -14.008   -14.007     0.000     (0)  
O(0)          0.000e+00
   O2              0.000e+00   0.000e+00   -66.412   -66.412     0.000     (0)  

------------------------------Saturation indices-------------------------------

	Phase               SI   log IAP   log K(298 K,   1 atm)

	Aragonite        -6.50    -14.84   -8.34  CaCO3
	Calcite          -6.36    -14.84   -8.48  CaCO3
	CO2(g)            1.47     -0.00   -1.47  CO2
	H2(g)            -9.80     33.20   43.00  H2
	O2(g)           -63.52    -66.41   -2.89  O2


-----------------------------------------
Beginning of batch-reaction calculations.
-----------------------------------------

Reaction step 1.

Using solution 2.	
Using pure phase assemblage 2.	

-------------------------------Phase assemblage--------------------------------

                                                      Moles in assemblage
Phase               SI  log IAP  log K(T, P)   Initial       Final       Delta

Calcite          -6.36   -14.84     -8.48    0.000e+00           0   0.000e+00

-----------------------------Solution composition------------------------------

	Elements           Molality       Moles

	C                 1.000e+00   1.000e+00
	Ca                3.393e-05   3.393e-05
	Cl                1.000e-03   1.000e-03
	Na                1.000e-03   1.000e-03

----------------------------Description of solution----------------------------

                                       pH  =   3.200      Charge balance
                                       pe  =   1.728      Adjusted to redox equilibrium
                        Activity of water  =   0.983
                           Ionic strength  =   1.760e-03
                       Mass of water (kg)  =   1.000e+00
                 Total alkalinity (eq/kg)  =   6.786e-05
                       Total CO2 (mol/kg)  =   1.000e+00
                      Temperature (deg C)  =  25.00
                  Electrical balance (eq)  =   7.031e-19
 Percent error, 100*(Cat-|An|)/(Cat+|An|)  =   0.00
                               Iterations  =   1
                                  Total H  = 1.110138e+02
                                  Total O  = 5.750701e+01

----------------------------Distribution of species----------------------------

                                               Log       Log       Log    mole V
   Species          Molality    Activity  Molality  Activity     Gamma   cm3/mol

   H+              6.586e-04   6.304e-04    -3.181    -3.200    -0.019      0.00
   OH-             1.636e-11   1.561e-11   -10.786   -10.807    -0.020     (0)  
   H2O             5.551e+01   9.830e-01     1.744    -0.007     0.000     18.07
C(-4)         9.417e-16
   CH4             9.417e-16   9.421e-16   -15.026   -15.026     0.000     (0)  
C(4)          1.000e+00
   CO2             9.993e-01   9.997e-01    -0.000    -0.000     0.000     (0)  
   HCO3-           7.259e-04   6.933e-04    -3.139    -3.159    -0.020     (0)  
   NaHCO3          3.719e-07   3.721e-07    -6.430    -6.429     0.000     (0)  
   CaHCO3+         2.595e-07   2.479e-07    -6.586    -6.606    -0.020     (0)  
   CO3-2           6.196e-11   5.158e-11   -10.208   -10.288    -0.080     (0)  
   CaCO3           2.427e-12   2.428e-12   -11.615   -11.615     0.000     (0)  
   NaCO3-          9.604e-13   9.166e-13   -12.018   -12.038    -0.020     (0)  
Ca            3.393e-05
   Ca+2            3.367e-05   2.802e-05    -4.473    -4.552    -0.080     (0)  
   CaHCO3+         2.595e-07   2.479e-07    -6.586    -6.606    -0.020     (0)  
   CaCO3           2.427e-12   2.428e-12   -11.615   -11.615     0.000     (0)  
   CaOH+           7.598e-15   7.252e-15   -14.119   -14.140    -0.020     (0)  
Cl            1.000e-03
   Cl-             1.000e-03   9.541e-04    -3.000    -3.020    -0.020     (0)  
H(0)          1.964e-13
   H2              9.819e-14   9.823e-14   -13.008   -13.008     0.000     (0)  
Na            1.000e-03
   Na+             9.996e-04   9.543e-04    -3.000    -3.020    -0.020     (0)  
   NaHCO3          3.719e-07   3.721e-07    -6.430    -6.429     0.000     (0)  
   NaCO3-          9.604e-13   9.166e-13   -12.018   -12.038    -0.020     (0)  
   NaOH            9.828e-15   9.832e-15   -14.008   -14.007     0.000     (0)  
O(0)          0.000e+00
   O2              0.000e+00   0.000e+00   -66.380   -66.379     0.000     (0)  

------------------------------Saturation indices-------------------------------

	Phase               SI   log IAP   log K(298 K,   1 atm)

	Aragonite        -6.50    -14.84   -8.34  CaCO3
	Calcite          -6.36    -14.84   -8.48  CaCO3
	CH4(g)          -12.18    -15.03   -2.84  CH4
	CO2(g)            1.47     -0.00   -1.47  CO2
	H2(g)            -9.82     33.18   43.00  H2
	O2(g)           -63.49    -66.38   -2.89  O2


------------------
End of simulation.
------------------

------------------------------------
Reading input data for simulation 3.
------------------------------------

	SOLUTION 3 #New Version 
	units mol/kgw 
	temp 25.000000 
	Ca       1.082646993724e-04     # comp 
	Na       9.999979522407e-04     # comp 
	Cl       9.999979522407e-04     # comp 
	C(4)       1.000106216940e+00     # comp 
	pH       3.246439497023e+00 charge        # comp 
	pe       1.511197966062e+01       # comp 
	EQUILIBRIUM_PHASES   3
	Calcite 0.000000000000e+00  0.000000000000e+00       # comp 
	END
-------------------------------------------
Beginning of initial solution calculations.
-------------------------------------------

Initial solution 3.	

-----------------------------Solution composition------------------------------

	Elements           Molality       Moles

	C(4)              1.000e+00   1.000e+00
	Ca                1.083e-04   1.083e-04
	Cl                1.000e-03   1.000e-03
	Na                1.000e-03   1.000e-03

----------------------------Description of solution----------------------------

                                       pH  =   3.246      Charge balance
                                       pe  =  15.112    
                        Activity of water  =   0.983
                           Ionic strength  =   1.916e-03
                       Mass of water (kg)  =   1.000e+00
                 Total alkalinity (eq/kg)  =   2.165e-04
                       Total CO2 (mol/kg)  =   1.000e+00
                      Temperature (deg C)  =  25.00
                  Electrical balance (eq)  =  -3.086e-18
 Percent error, 100*(Cat-|An|)/(Cat+|An|)  =  -0.00
                               Iterations  =  10
                                  Total H  = 1.110138e+02
                                  Total O  = 5.750724e+01

----------------------------Distribution of species----------------------------

                                               Log       Log       Log    mole V
   Species          Molality    Activity  Molality  Activity     Gamma   cm3/mol

   H+              5.934e-04   5.670e-04    -3.227    -3.246    -0.020      0.00
   OH-             1.823e-11   1.736e-11   -10.739   -10.761    -0.021     (0)  
   H2O             5.551e+01   9.830e-01     1.744    -0.007     0.000     18.07
C(4)          1.000e+00
   CO2             9.993e-01   9.997e-01    -0.000    -0.000     0.000     (0)  
   HCO3-           8.086e-04   7.709e-04    -3.092    -3.113    -0.021     (0)  
   CaHCO3+         9.148e-07   8.722e-07    -6.039    -6.059    -0.021     (0)  
   NaHCO3          4.127e-07   4.129e-07    -6.384    -6.384     0.000     (0)  
   CO3-2           7.717e-11   6.377e-11   -10.113   -10.195    -0.083     (0)  
   CaCO3           9.495e-12   9.499e-12   -11.023   -11.022     0.000     (0)  
   NaCO3-          1.187e-12   1.131e-12   -11.925   -11.947    -0.021     (0)  
Ca            1.083e-04
   Ca+2            1.073e-04   8.868e-05    -3.969    -4.052    -0.083     (0)  
   CaHCO3+         9.148e-07   8.722e-07    -6.039    -6.059    -0.021     (0)  
   CaCO3           9.495e-12   9.499e-12   -11.023   -11.022     0.000     (0)  
   CaOH+           2.678e-14   2.551e-14   -13.572   -13.593    -0.021     (0)  
Cl            1.000e-03
   Cl-             1.000e-03   9.523e-04    -3.000    -3.021    -0.021     (0)  
H(0)          2.716e-40
   H2              1.358e-40   1.359e-40   -39.867   -39.867     0.000     (0)  
Na            1.000e-03
   Na+             9.996e-04   9.525e-04    -3.000    -3.021    -0.021     (0)  
   NaHCO3          4.127e-07   4.129e-07    -6.384    -6.384     0.000     (0)  
   NaCO3-          1.187e-12   1.131e-12   -11.925   -11.947    -0.021     (0)  
   NaOH            1.091e-14   1.091e-14   -13.962   -13.962     0.000     (0)  
O(0)          4.361e-13
   O2              2.181e-13   2.182e-13   -12.661   -12.661     0.000     (0)  

------------------------------Saturation indices-------------------------------

	Phase               SI   log IAP   log K(298 K,   1 atm)

	Aragonite        -5.91    -14.25   -8.34  CaCO3
	Calcite          -5.77    -14.25   -8.48  CaCO3
	CO2(g)            1.47     -0.00   -1.47  CO2
	H2(g)           -36.67      6.32   43.00  H2
	O2(g)            -9.77    -12.66   -2.89  O2


-----------------------------------------
Beginning of batch-reaction calculations.
-----------------------------------------

Reaction step 1.

Using solution 3.	
Using pure phase assemblage 3.	

-------------------------------Phase assemblage--------------------------------

                                                      Moles in assemblage
Phase               SI  log IAP  log K(T, P)   Initial       Final       Delta

Calcite          -5.77   -14.25     -8.48    0.000e+00           0   0.000e+00

-----------------------------Solution composition------------------------------

	Elements           Molality       Moles

	C                 1.000e+00   1.000e+00
	Ca                1.083e-04   1.083e-04
	Cl                1.000e-03   1.000e-03
	Na                1.000e-03   1.000e-03

----------------------------Description of solution----------------------------

                                       pH  =   3.246      Charge balance
                                       pe  =  15.113      Adjusted to redox equilibrium
                        Activity of water  =   0.983
                           Ionic strength  =   1.916e-03
                       Mass of water (kg)  =   1.000e+00
                 Total alkalinity (eq/kg)  =   2.165e-04
                       Total CO2 (mol/kg)  =   1.000e+00
                      Temperature (deg C)  =  25.00
                  Electrical balance (eq)  =  -3.086e-18
 Percent error, 100*(Cat-|An|)/(Cat+|An|)  =  -0.00
                               Iterations  =   1
                                  Total H  = 1.110138e+02
                                  Total O  = 5.750724e+01

----------------------------Distribution of species----------------------------

                                               Log       Log       Log    mole V
   Species          Molality    Activity  Molality  Activity     Gamma   cm3/mol

   H+              5.934e-04   5.670e-04    -3.227    -3.246    -0.020      0.00
   OH-             1.823e-11   1.736e-11   -10.739   -10.761    -0.021     (0)  
   H2O             5.551e+01   9.830e-01     1.744    -0.007     0.000     18.07
C(-4)         0.000e+00
   CH4             0.000e+00   0.000e+00  -122.468  -122.468     0.000     (0)  
C(4)          1.000e+00
   CO2             9.993e-01   9.997e-01    -0.000    -0.000     0.000     (0)  
   HCO3-           8.086e-04   7.709e-04    -3.092    -3.113    -0.021     (0)  
   CaHCO3+         9.148e-07   8.722e-07    -6.039    -6.059    -0.021     (0)  
   NaHCO3          4.127e-07   4.129e-07    -6.384    -6.384     0.000     (0)  
   CO3-2           7.717e-11   6.377e-11   -10.113   -10.195    -0.083     (0)  
   CaCO3           9.495e-12   9.499e-12   -11.023   -11.022     0.000     (0)  
   NaCO3-          1.187e-12   1.131e-12   -11.925   -11.947    -0.021     (0)  
Ca            1.083e-04
   Ca+2            1.073e-04   8.868e-05    -3.969    -4.052    -0.083     (0)  
   CaHCO3+         9.148e-07   8.722e-07    -6.039    -6.059    -0.021     (0)  
   CaCO3           9.495e-12   9.499e-12   -11.023   -11.022     0.000     (0)  
   CaOH+           2.678e-14   2.551e-14   -13.572   -13.593    -0.021     (0)  
Cl            1.000e-03
   Cl-             1.000e-03   9.523e-04    -3.000    -3.021    -0.021     (0)  
H(0)          2.708e-40
   H2              1.354e-40   1.355e-40   -39.868   -39.868     0.000     (0)  
Na            1.000e-03
   Na+             9.996e-04   9.525e-04    -3.000    -3.021    -0.021     (0)  
   NaHCO3          4.127e-07   4.129e-07    -6.384    -6.384     0.000     (0)  
   NaCO3-          1.187e-12   1.131e-12   -11.925   -11.947    -0.021     (0)  
   NaOH            1.091e-14   1.091e-14   -13.962   -13.962     0.000     (0)  
O(0)          4.388e-13
   O2              2.194e-13   2.195e-13   -12.659   -12.659     0.000     (0)  

------------------------------Saturation indices-------------------------------

	Phase               SI   log IAP   log K(298 K,   1 atm)

	Aragonite        -5.91    -14.25   -8.34  CaCO3
	Calcite          -5.77    -14.25   -8.48  CaCO3
	CH4(g)         -119.62   -122.47   -2.84  CH4
	CO2(g)            1.47     -0.00   -1.47  CO2
	H2(g)           -36.68      6.32   43.00  H2
	O2(g)            -9.77    -12.66   -2.89  O2


------------------
End of simulation.
------------------

------------------------------------
Reading input data for simulation 4.
------------------------------------

	SOLUTION 4 #New Version 
	units mol/kgw 
	temp 25.000000 
	Ca       2.711085222682e-04     # comp 
	Na       9.999948721510e-04     # comp 
	Cl       9.999948721509e-04     # comp 
	C(4)       1.000265980673e+00     # comp 
	pH       3.343483057779e+00 charge        # comp 
	pe       1.499359214240e+01       # comp 
	EQUILIBRIUM_PHASES   4
	Calcite 0.000000000000e+00  0.000000000000e+00       # comp 
	END
-------------------------------------------
Beginning of initial solution calculations.
-------------------------------------------

Initial solution 4.	

-----------------------------Solution composition------------------------------

	Elements           Molality       Moles

	C(4)              1.000e+00   1.000e+00
	Ca                2.711e-04   2.711e-04
	Cl                1.000e-03   1.000e-03
	Na                1.000e-03   1.000e-03

----------------------------Description of solution----------------------------

                                       pH  =   3.343      Charge balance
                                       pe  =  14.994    
                        Activity of water  =   0.983
                           Ionic strength  =   2.283e-03
                       Mass of water (kg)  =   1.000e+00
                 Total alkalinity (eq/kg)  =   5.422e-04
                       Total CO2 (mol/kg)  =   1.000e+00
                      Temperature (deg C)  =  25.00
                  Electrical balance (eq)  =  -2.085e-18
 Percent error, 100*(Cat-|An|)/(Cat+|An|)  =  -0.00
                               Iterations  =  11
                                  Total H  = 1.110139e+02
                                  Total O  = 5.750777e+01

----------------------------Distribution of species----------------------------

                                               Log       Log       Log    mole V
   Species          Molality    Activity  Molality  Activity     Gamma   cm3/mol

   H+              4.763e-04   4.534e-04    -3.322    -3.343    -0.021      0.00
   OH-             2.289e-11   2.170e-11   -10.640   -10.664    -0.023     (0)  
   H2O             5.551e+01   9.829e-01     1.744    -0.007     0.000     18.07
C(4)          1.000e+00
   CO2             9.992e-01   9.998e-01    -0.000    -0.000     0.000     (0)  
   HCO3-           1.015e-03   9.640e-04    -2.993    -3.016    -0.022     (0)  
   CaHCO3+         2.824e-06   2.682e-06    -5.549    -5.572    -0.022     (0)  
   NaHCO3          5.139e-07   5.141e-07    -6.289    -6.289     0.000     (0)  
   CO3-2           1.226e-10   9.970e-11    -9.911   -10.001    -0.090     (0)  
   CaCO3           3.650e-11   3.652e-11   -10.438   -10.437     0.000     (0)  
   NaCO3-          1.856e-12   1.761e-12   -11.731   -11.754    -0.023     (0)  
Ca            2.711e-04
   Ca+2            2.683e-04   2.181e-04    -3.571    -3.661    -0.090     (0)  
   CaHCO3+         2.824e-06   2.682e-06    -5.549    -5.572    -0.022     (0)  
   CaCO3           3.650e-11   3.652e-11   -10.438   -10.437     0.000     (0)  
   CaOH+           8.270e-14   7.845e-14   -13.082   -13.105    -0.023     (0)  
Cl            1.000e-03
   Cl-             1.000e-03   9.483e-04    -3.000    -3.023    -0.023     (0)  
H(0)          2.997e-40
   H2              1.498e-40   1.499e-40   -39.824   -39.824     0.000     (0)  
Na            1.000e-03
   Na+             9.995e-04   9.484e-04    -3.000    -3.023    -0.023     (0)  
   NaHCO3          5.139e-07   5.141e-07    -6.289    -6.289     0.000     (0)  
   NaCO3-          1.856e-12   1.761e-12   -11.731   -11.754    -0.023     (0)  
   NaOH            1.358e-14   1.358e-14   -13.867   -13.867     0.000     (0)  
O(0)          3.583e-13
   O2              1.791e-13   1.792e-13   -12.747   -12.747     0.000     (0)  

------------------------------Saturation indices-------------------------------

	Phase               SI   log IAP   log K(298 K,   1 atm)

	Aragonite        -5.33    -13.66   -8.34  CaCO3
	Calcite          -5.18    -13.66   -8.48  CaCO3
	CO2(g)            1.47     -0.00   -1.47  CO2
	H2(g)           -36.63      6.37   43.00  H2
	O2(g)            -9.85    -12.75   -2.89  O2


-----------------------------------------
Beginning of batch-reaction calculations.
-----------------------------------------

Reaction step 1.

Using solution 4.	
Using pure phase assemblage 4.	

-------------------------------Phase assemblage--------------------------------

                                                      Moles in assemblage
Phase               SI  log IAP  log K(T, P)   Initial       Final       Delta

Calcite          -5.18   -13.66     -8.48    0.000e+00           0   0.000e+00

-----------------------------Solution composition------------------------------

	Elements           Molality       Moles

	C                 1.000e+00   1.000e+00
	Ca                2.711e-04   2.711e-04
	Cl                1.000e-03   1.000e-03
	Na                1.000e-03   1.000e-03

----------------------------Description of solution----------------------------

                                       pH  =   3.343      Charge balance
                                       pe  =  14.991      Adjusted to redox equilibrium
                        Activity of water  =   0.983
                           Ionic strength  =   2.283e-03
                       Mass of water (kg)  =   1.000e+00
                 Total alkalinity (eq/kg)  =   5.422e-04
                       Total CO2 (mol/kg)  =   1.000e+00
                      Temperature (deg C)  =  25.00
                  Electrical balance (eq)  =  -2.085e-18
 Percent error, 100*(Cat-|An|)/(Cat+|An|)  =  -0.00
                               Iterations  =   1
                                  Total H  = 1.110139e+02
                                  Total O  = 5.750777e+01

----------------------------Distribution of species----------------------------

                                               Log       Log       Log    mole V
   Species          Molality    Activity  Molality  Activity     Gamma   cm3/mol

   H+              4.763e-04   4.534e-04    -3.322    -3.343    -0.021      0.00
   OH-             2.289e-11   2.170e-11   -10.640   -10.664    -0.023     (0)  
   H2O             5.551e+01   9.829e-01     1.744    -0.007     0.000     18.07
C(-4)         0.000e+00
   CH4             0.000e+00   0.000e+00  -122.274  -122.273     0.000     (0)  
C(4)          1.000e+00
   CO2             9.992e-01   9.998e-01    -0.000    -0.000     0.000     (0)  
   HCO3-           1.015e-03   9.640e-04    -2.993    -3.016    -0.022     (0)  
   CaHCO3+         2.824e-06   2.682e-06    -5.549    -5.572    -0.022     (0)  
   NaHCO3          5.139e-07   5.141e-07    -6.289    -6.289     0.000     (0)  
   CO3-2           1.226e-10   9.970e-11    -9.911   -10.001    -0.090     (0)  
   CaCO3           3.650e-11   3.652e-11   -10.438   -10.437     0.000     (0)  
   NaCO3-          1.856e-12   1.761e-12   -11.731   -11.754    -0.023     (0)  
Ca            2.711e-04
   Ca+2            2.683e-04   2.181e-04    -3.571    -3.661    -0.090     (0)  
   CaHCO3+         2.824e-06   2.682e-06    -5.549    -5.572    -0.022     (0)  
   CaCO3           3.650e-11   3.652e-11   -10.438   -10.437     0.000     (0)  
   CaOH+           8.270e-14   7.845e-14   -13.082   -13.105    -0.023     (0)  
Cl            1.000e-03
   Cl-             1.000e-03   9.483e-04    -3.000    -3.023    -0.023     (0)  
H(0)          3.028e-40
   H2              1.514e-40   1.515e-40   -39.820   -39.820     0.000     (0)  
Na            1.000e-03
   Na+             9.995e-04   9.484e-04    -3.000    -3.023    -0.023     (0)  
   NaHCO3          5.139e-07   5.141e-07    -6.289    -6.289     0.000     (0)  
   NaCO3-          1.856e-12   1.761e-12   -11.731   -11.754    -0.023     (0)  
   NaOH            1.358e-14   1.358e-14   -13.867   -13.867     0.000     (0)  
O(0)          3.508e-13
   O2              1.754e-13   1.755e-13   -12.756   -12.756     0.000     (0)  

------------------------------Saturation indices-------------------------------

	Phase               SI   log IAP   log K(298 K,   1 atm)

	Aragonite        -5.33    -13.66   -8.34  CaCO3
	Calcite          -5.18    -13.66   -8.48  CaCO3
	CH4(g)         -119.43   -122.27   -2.84  CH4
	CO2(g)            1.47     -0.00   -1.47  CO2
	H2(g)           -36.63      6.37   43.00  H2
	O2(g)            -9.86    -12.76   -2.89  O2


------------------
End of simulation.
------------------

------------------------------------
Reading input data for simulation 5.
------------------------------------

	SOLUTION 5 #New Version 
	units mol/kgw 
	temp 25.000000 
	Ca       6.278614851316e-04     # comp 
	Na       9.999881243894e-04     # comp 
	Cl       9.999881243894e-04     # comp 
	C(4)       1.000615985875e+00     # comp 
	pH       3.526444906094e+00 charge        # comp 
	pe       1.487470064663e+01       # comp 
	EQUILIBRIUM_PHASES   5
	Calcite 0.000000000000e+00  0.000000000000e+00       # comp 
	END
-------------------------------------------
Beginning of initial solution calculations.
-------------------------------------------

Initial solution 5.	

-----------------------------Solution composition------------------------------

	Elements           Molality       Moles

	C(4)              1.001e+00   1.001e+00
	Ca                6.279e-04   6.279e-04
	Cl                1.000e-03   1.000e-03
	Na                1.000e-03   1.000e-03

----------------------------Description of solution----------------------------

                                       pH  =   3.526      Charge balance
                                       pe  =  14.875    
                        Activity of water  =   0.983
                           Ionic strength  =   3.178e-03
                       Mass of water (kg)  =   1.000e+00
                 Total alkalinity (eq/kg)  =   1.256e-03
                       Total CO2 (mol/kg)  =   1.001e+00
                      Temperature (deg C)  =  25.00
                  Electrical balance (eq)  =   1.024e-16
 Percent error, 100*(Cat-|An|)/(Cat+|An|)  =   0.00
                               Iterations  =  11
                                  Total H  = 1.110143e+02
                                  Total O  = 5.750902e+01

----------------------------Distribution of species----------------------------

                                               Log       Log       Log    mole V
   Species          Molality    Activity  Molality  Activity     Gamma   cm3/mol

   H+              3.149e-04   2.975e-04    -3.502    -3.526    -0.025      0.00
   OH-             3.519e-11   3.307e-11   -10.454   -10.481    -0.027     (0)  
   H2O             5.551e+01   9.829e-01     1.744    -0.007     0.000     18.07
C(4)          1.001e+00
   CO2             9.990e-01   9.998e-01    -0.000    -0.000     0.000     (0)  
   HCO3-           1.560e-03   1.469e-03    -2.807    -2.833    -0.026     (0)  
   CaHCO3+         9.668e-06   9.104e-06    -5.015    -5.041    -0.026     (0)  
   NaHCO3          7.760e-07   7.765e-07    -6.110    -6.110     0.000     (0)  
   CO3-2           2.946e-10   2.316e-10    -9.531    -9.635    -0.105     (0)  
   CaCO3           1.888e-10   1.889e-10    -9.724    -9.724     0.000     (0)  
   NaCO3-          4.310e-12   4.053e-12   -11.365   -11.392    -0.027     (0)  
Ca            6.279e-04
   Ca+2            6.182e-04   4.857e-04    -3.209    -3.314    -0.105     (0)  
   CaHCO3+         9.668e-06   9.104e-06    -5.015    -5.041    -0.026     (0)  
   CaCO3           1.888e-10   1.889e-10    -9.724    -9.724     0.000     (0)  
   CaOH+           2.832e-13   2.663e-13   -12.548   -12.575    -0.027     (0)  
Cl            1.000e-03
   Cl-             1.000e-03   9.398e-04    -3.000    -3.027    -0.027     (0)  
H(0)          2.230e-40
   H2              1.115e-40   1.116e-40   -39.953   -39.952     0.000     (0)  
Na            1.000e-03
   Na+             9.992e-04   9.400e-04    -3.000    -3.027    -0.027     (0)  
   NaHCO3          7.760e-07   7.765e-07    -6.110    -6.110     0.000     (0)  
   NaCO3-          4.310e-12   4.053e-12   -11.365   -11.392    -0.027     (0)  
   NaOH            2.050e-14   2.052e-14   -13.688   -13.688     0.000     (0)  
O(0)          6.463e-13
   O2              3.232e-13   3.234e-13   -12.491   -12.490     0.000     (0)  

------------------------------Saturation indices-------------------------------

	Phase               SI   log IAP   log K(298 K,   1 atm)

	Aragonite        -4.61    -12.95   -8.34  CaCO3
	Calcite          -4.47    -12.95   -8.48  CaCO3
	CO2(g)            1.47     -0.00   -1.47  CO2
	H2(g)           -36.76      6.24   43.00  H2
	O2(g)            -9.60    -12.49   -2.89  O2


-----------------------------------------
Beginning of batch-reaction calculations.
-----------------------------------------

Reaction step 1.

Using solution 5.	
Using pure phase assemblage 5.	

-------------------------------Phase assemblage--------------------------------

                                                      Moles in assemblage
Phase               SI  log IAP  log K(T, P)   Initial       Final       Delta

Calcite          -4.47   -12.95     -8.48    0.000e+00           0   0.000e+00

-----------------------------Solution composition------------------------------

	Elements           Molality       Moles

	C                 1.001e+00   1.001e+00
	Ca                6.279e-04   6.279e-04
	Cl                1.000e-03   1.000e-03
	Na                1.000e-03   1.000e-03

----------------------------Description of solution----------------------------

                                       pH  =   3.526      Charge balance
                                       pe  =  14.875      Adjusted to redox equilibrium
                        Activity of water  =   0.983
                           Ionic strength  =   3.178e-03
                       Mass of water (kg)  =   1.000e+00
                 Total alkalinity (eq/kg)  =   1.256e-03
                       Total CO2 (mol/kg)  =   1.001e+00
                      Temperature (deg C)  =  25.00
                  Electrical balance (eq)  =   1.052e-16
 Percent error, 100*(Cat-|An|)/(Cat+|An|)  =   0.00
                               Iterations  =   1
                                  Total H  = 1.110143e+02
                                  Total O  = 5.750902e+01

----------------------------Distribution of species----------------------------

                                               Log       Log       Log    mole V
   Species          Molality    Activity  Molality  Activity     Gamma   cm3/mol

   H+              3.149e-04   2.975e-04    -3.502    -3.526    -0.025      0.00
   OH-             3.519e-11   3.307e-11   -10.454   -10.481    -0.027     (0)  
   H2O             5.551e+01   9.829e-01     1.744    -0.007     0.000     18.07
C(-4)         0.000e+00
   CH4             0.000e+00   0.000e+00  -122.805  -122.805     0.000     (0)  
C(4)          1.001e+00
   CO2             9.990e-01   9.998e-01    -0.000    -0.000     0.000     (0)  
   HCO3-           1.560e-03   1.469e-03    -2.807    -2.833    -0.026     (0)  
   CaHCO3+         9.668e-06   9.104e-06    -5.015    -5.041    -0.026     (0)  
   NaHCO3          7.760e-07   7.765e-07    -6.110    -6.110     0.000     (0)  
   CO3-2           2.946e-10   2.316e-10    -9.531    -9.635    -0.105     (0)  
   CaCO3           1.888e-10   1.889e-10    -9.724    -9.724     0.000     (0)  
   NaCO3-          4.310e-12   4.053e-12   -11.365   -11.392    -0.027     (0)  
Ca            6.279e-04
   Ca+2            6.182e-04   4.857e-04    -3.209    -3.314    -0.105     (0)  
   CaHCO3+         9.668e-06   9.104e-06    -5.015    -5.041    -0.026     (0)  
   CaCO3           1.888e-10   1.889e-10    -9.724    -9.724     0.000     (0)  
   CaOH+           2.832e-13   2.663e-13   -12.548   -12.575    -0.027     (0)  
Cl            1.000e-03
   Cl-             1.000e-03   9.398e-04    -3.000    -3.027    -0.027     (0)  
H(0)          2.230e-40
   H2              1.115e-40   1.116e-40   -39.953   -39.952     0.000     (0)  
Na            1.000e-03
   Na+             9.992e-04   9.400e-04    -3.000    -3.027    -0.027     (0)  
   NaHCO3          7.760e-07   7.765e-07    -6.110    -6.110     0.000     (0)  
   NaCO3-          4.310e-12   4.053e-12   -11.365   -11.392    -0.027     (0)  
   NaOH            2.050e-14   2.052e-14   -13.688   -13.688     0.000     (0)  
O(0)          6.468e-13
   O2              3.234e-13   3.236e-13   -12.490   -12.490     0.000     (0)  

------------------------------Saturation indices-------------------------------

	Phase               SI   log IAP   log K(298 K,   1 atm)

	Aragonite        -4.61    -12.95   -8.34  CaCO3
	Calcite          -4.47    -12.95   -8.48  CaCO3
	CH4(g)         -119.96   -122.80   -2.84  CH4
	CO2(g)            1.47     -0.00   -1.47  CO2
	H2(g)           -36.76      6.24   43.00  H2
	O2(g)            -9.60    -12.49   -2.89  O2


------------------
End of simulation.
------------------

------------------------------------
Reading input data for simulation 6.
------------------------------------

	SOLUTION 6 #New Version 
	units mol/kgw 
	temp 25.000000 
	Ca       1.409429751569e-03     # comp 
	Na       9.999733415074e-04     # comp 
	Cl       9.999733415074e-04     # comp 
	C(4)       1.001382771259e+00     # comp 
	pH       3.796473602492e+00 charge        # comp 
	pe       1.196874387998e+00       # comp 
	EQUILIBRIUM_PHASES   6
	Calcite 0.000000000000e+00  0.000000000000e+00       # comp 
	END
-------------------------------------------
Beginning of initial solution calculations.
-------------------------------------------

Initial solution 6.	

-----------------------------Solution composition------------------------------

	Elements           Molality       Moles

	C(4)              1.001e+00   1.001e+00
	Ca                1.409e-03   1.409e-03
	Cl                1.000e-03   1.000e-03
	Na                1.000e-03   1.000e-03

----------------------------Description of solution----------------------------

                                       pH  =   3.797      Charge balance
                                       pe  =   1.197    
                        Activity of water  =   0.983
                           Ionic strength  =   5.322e-03
                       Mass of water (kg)  =   1.000e+00
                 Total alkalinity (eq/kg)  =   2.819e-03
                       Total CO2 (mol/kg)  =   1.001e+00
                      Temperature (deg C)  =  25.00
                  Electrical balance (eq)  =  -3.481e-18
 Percent error, 100*(Cat-|An|)/(Cat+|An|)  =  -0.00
                               Iterations  =  11
                                  Total H  = 1.110156e+02
                                  Total O  = 5.751197e+01

----------------------------Distribution of species----------------------------

                                               Log       Log       Log    mole V
   Species          Molality    Activity  Molality  Activity     Gamma   cm3/mol

   H+              1.714e-04   1.598e-04    -3.766    -3.797    -0.031      0.00
   OH-             6.665e-11   6.159e-11   -10.176   -10.211    -0.034     (0)  
   H2O             5.551e+01   9.829e-01     1.744    -0.007     0.000     18.07
C(4)          1.001e+00
   CO2             9.984e-01   9.996e-01    -0.001    -0.000     0.001     (0)  
   HCO3-           2.951e-03   2.735e-03    -2.530    -2.563    -0.033     (0)  
   CaHCO3+         3.809e-05   3.531e-05    -4.419    -4.452    -0.033     (0)  
   NaHCO3          1.420e-06   1.422e-06    -5.848    -5.847     0.001     (0)  
   CaCO3           1.363e-09   1.365e-09    -8.865    -8.865     0.001     (0)  
   CO3-2           1.087e-09   8.029e-10    -8.964    -9.095    -0.132     (0)  
   NaCO3-          1.494e-11   1.382e-11   -10.826   -10.860    -0.034     (0)  
Ca            1.409e-03
   Ca+2            1.371e-03   1.012e-03    -2.863    -2.995    -0.132     (0)  
   CaHCO3+         3.809e-05   3.531e-05    -4.419    -4.452    -0.033     (0)  
   CaCO3           1.363e-09   1.365e-09    -8.865    -8.865     0.001     (0)  
   CaOH+           1.117e-12   1.033e-12   -11.952   -11.986    -0.034     (0)  
Cl            1.000e-03
   Cl-             1.000e-03   9.241e-04    -3.000    -3.034    -0.034     (0)  
H(0)          1.458e-13
   H2              7.290e-14   7.299e-14   -13.137   -13.137     0.001     (0)  
Na            1.000e-03
   Na+             9.986e-04   9.243e-04    -3.001    -3.034    -0.034     (0)  
   NaHCO3          1.420e-06   1.422e-06    -5.848    -5.847     0.001     (0)  
   NaCO3-          1.494e-11   1.382e-11   -10.826   -10.860    -0.034     (0)  
   NaOH            3.752e-14   3.757e-14   -13.426   -13.425     0.001     (0)  
O(0)          0.000e+00
   O2              0.000e+00   0.000e+00   -66.122   -66.121     0.001     (0)  

------------------------------Saturation indices-------------------------------

	Phase               SI   log IAP   log K(298 K,   1 atm)

	Aragonite        -3.75    -12.09   -8.34  CaCO3
	Calcite          -3.61    -12.09   -8.48  CaCO3
	CO2(g)            1.47     -0.00   -1.47  CO2
	H2(g)            -9.94     33.05   43.00  H2
	O2(g)           -63.23    -66.12   -2.89  O2


-----------------------------------------
Beginning of batch-reaction calculations.
-----------------------------------------

Reaction step 1.

Using solution 6.	
Using pure phase assemblage 6.	

-------------------------------Phase assemblage--------------------------------

                                                      Moles in assemblage
Phase               SI  log IAP  log K(T, P)   Initial       Final       Delta

Calcite          -3.61   -12.09     -8.48    0.000e+00           0   0.000e+00

-----------------------------Solution composition------------------------------

	Elements           Molality       Moles

	C                 1.001e+00   1.001e+00
	Ca                1.409e-03   1.409e-03
	Cl                1.000e-03   1.000e-03
	Na                1.000e-03   1.000e-03

----------------------------Description of solution----------------------------

                                       pH  =   3.797      Charge balance
                                       pe  =   1.188      Adjusted to redox equilibrium
                        Activity of water  =   0.983
                           Ionic strength  =   5.322e-03
                       Mass of water (kg)  =   1.000e+00
                 Total alkalinity (eq/kg)  =   2.819e-03
                       Total CO2 (mol/kg)  =   1.001e+00
                      Temperature (deg C)  =  25.00
                  Electrical balance (eq)  =  -3.481e-18
 Percent error, 100*(Cat-|An|)/(Cat+|An|)  =  -0.00
                               Iterations  =   1
                                  Total H  = 1.110156e+02
                                  Total O  = 5.751197e+01

----------------------------Distribution of species----------------------------

                                               Log       Log       Log    mole V
   Species          Molality    Activity  Molality  Activity     Gamma   cm3/mol

   H+              1.714e-04   1.598e-04    -3.766    -3.797    -0.031      0.00
   OH-             6.665e-11   6.159e-11   -10.176   -10.211    -0.034     (0)  
   H2O             5.551e+01   9.829e-01     1.744    -0.007     0.000     18.07
C(-4)         3.367e-16
   CH4             3.367e-16   3.371e-16   -15.473   -15.472     0.001     (0)  
C(4)          1.001e+00
   CO2             9.984e-01   9.996e-01    -0.001    -0.000     0.001     (0)  
   HCO3-           2.951e-03   2.735e-03    -2.530    -2.563    -0.033     (0)  
   CaHCO3+         3.809e-05   3.531e-05    -4.419    -4.452    -0.033     (0)  
   NaHCO3          1.420e-06   1.422e-06    -5.848    -5.847     0.001     (0)  
   CaCO3           1.363e-09   1.365e-09    -8.865    -8.865     0.001     (0)  
   CO3-2           1.087e-09   8.029e-10    -8.964    -9.095    -0.132     (0)  
   NaCO3-          1.494e-11   1.382e-11   -10.826   -10.860    -0.034     (0)  
Ca            1.409e-03
   Ca+2            1.371e-03   1.012e-03    -2.863    -2.995    -0.132     (0)  
   CaHCO3+         3.809e-05   3.531e-05    -4.419    -4.452    -0.033     (0)  
   CaCO3           1.363e-09   1.365e-09    -8.865    -8.865     0.001     (0)  
   CaOH+           1.117e-12   1.033e-12   -11.952   -11.986    -0.034     (0)  
Cl            1.000e-03
   Cl-             1.000e-03   9.241e-04    -3.000    -3.034    -0.034     (0)  
H(0)          1.518e-13
   H2              7.588e-14   7.597e-14   -13.120   -13.119     0.001     (0)  
Na            1.000e-03
   Na+             9.986e-04   9.243e-04    -3.001    -3.034    -0.034     (0)  
   NaHCO3          1.420e-06   1.422e-06    -5.848    -5.847     0.001     (0)  
   NaCO3-          1.494e-11   1.382e-11   -10.826   -10.860    -0.034     (0)  
   NaOH            3.752e-14   3.757e-14   -13.426   -13.425     0.001     (0)  
O(0)          0.000e+00
   O2              0.000e+00   0.000e+00   -66.157   -66.156     0.001     (0)  

------------------------------Saturation indices-------------------------------

	Phase               SI   log IAP   log K(298 K,   1 atm)

	Aragonite        -3.75    -12.09   -8.34  CaCO3
	Calcite          -3.61    -12.09   -8.48  CaCO3
	CH4(g)          -12.63    -15.47   -2.84  CH4
	CO2(g)            1.47     -0.00   -1.47  CO2
	H2(g)            -9.93     33.07   43.00  H2
	O2(g)           -63.26    -66.16   -2.89  O2


------------------
End of simulation.
------------------

------------------------------------
Reading input data for simulation 7.
------------------------------------

	SOLUTION 7 #New Version 
	units mol/kgw 
	temp 25.000000 
	Ca       3.121681675770e-03     # comp 
	Na       9.999409553136e-04     # comp 
	Cl       9.999409553135e-04     # comp 
	C(4)       1.003062636989e+00     # comp 
	pH       4.106466662222e+00 charge        # comp 
	pe       1.421178127833e+01       # comp 
	EQUILIBRIUM_PHASES   7
	Calcite 0.000000000000e+00  0.000000000000e+00       # comp 
	END
-------------------------------------------
Beginning of initial solution calculations.
-------------------------------------------

Initial solution 7.	

-----------------------------Solution composition------------------------------

	Elements           Molality       Moles

	C(4)              1.003e+00   1.003e+00
	Ca                3.122e-03   3.122e-03
	Cl                9.999e-04   9.999e-04
	Na                9.999e-04   9.999e-04

----------------------------Description of solution----------------------------

                                       pH  =   4.107      Charge balance
                                       pe  =  14.212    
                        Activity of water  =   0.983
                           Ionic strength  =   1.014e-02
                       Mass of water (kg)  =   1.000e+00
                 Total alkalinity (eq/kg)  =   6.243e-03
                       Total CO2 (mol/kg)  =   1.003e+00
                      Temperature (deg C)  =  25.00
                  Electrical balance (eq)  =   3.079e-16
 Percent error, 100*(Cat-|An|)/(Cat+|An|)  =   0.00
                               Iterations  =  10
                                  Total H  = 1.110188e+02
                                  Total O  = 5.751867e+01

----------------------------Distribution of species----------------------------

                                               Log       Log       Log    mole V
   Species          Molality    Activity  Molality  Activity     Gamma   cm3/mol

   H+              8.572e-05   7.825e-05    -4.067    -4.107    -0.040      0.00
   OH-             1.398e-10   1.257e-10    -9.855    -9.901    -0.046     (0)  
   H2O             5.551e+01   9.829e-01     1.744    -0.008     0.000     18.07
C(4)          1.003e+00
   CO2             9.967e-01   9.991e-01    -0.001    -0.000     0.001     (0)  
   HCO3-           6.170e-03   5.581e-03    -2.210    -2.253    -0.044     (0)  
   CaHCO3+         1.562e-04   1.413e-04    -3.806    -3.850    -0.044     (0)  
   NaHCO3          2.818e-06   2.824e-06    -5.550    -5.549     0.001     (0)  
   CaCO3           1.112e-08   1.115e-08    -7.954    -7.953     0.001     (0)  
   CO3-2           4.996e-09   3.345e-09    -8.301    -8.476    -0.174     (0)  
   NaCO3-          6.218e-11   5.604e-11   -10.206   -10.251    -0.045     (0)  
Ca            3.122e-03
   Ca+2            2.965e-03   1.984e-03    -2.528    -2.702    -0.175     (0)  
   CaHCO3+         1.562e-04   1.413e-04    -3.806    -3.850    -0.044     (0)  
   CaCO3           1.112e-08   1.115e-08    -7.954    -7.953     0.001     (0)  
   CaOH+           4.588e-12   4.135e-12   -11.338   -11.383    -0.045     (0)  
Cl            9.999e-04
   Cl-             9.999e-04   8.997e-04    -3.000    -3.046    -0.046     (0)  
H(0)          3.262e-40
   H2              1.631e-40   1.635e-40   -39.788   -39.787     0.001     (0)  
Na            9.999e-04
   Na+             9.971e-04   8.998e-04    -3.001    -3.046    -0.045     (0)  
   NaHCO3          2.818e-06   2.824e-06    -5.550    -5.549     0.001     (0)  
   NaCO3-          6.218e-11   5.604e-11   -10.206   -10.251    -0.045     (0)  
   NaOH            7.450e-14   7.467e-14   -13.128   -13.127     0.001     (0)  
O(0)          3.007e-13
   O2              1.503e-13   1.507e-13   -12.823   -12.822     0.001     (0)  

------------------------------Saturation indices-------------------------------

	Phase               SI   log IAP   log K(298 K,   1 atm)

	Aragonite        -2.84    -11.18   -8.34  CaCO3
	Calcite          -2.70    -11.18   -8.48  CaCO3
	CO2(g)            1.47     -0.00   -1.47  CO2
	H2(g)           -36.59      6.40   43.00  H2
	O2(g)            -9.93    -12.82   -2.89  O2


-----------------------------------------
Beginning of batch-reaction calculations.
-----------------------------------------

Reaction step 1.

Using solution 7.	
Using pure phase assemblage 7.	

-------------------------------Phase assemblage--------------------------------

                                                      Moles in assemblage
Phase               SI  log IAP  log K(T, P)   Initial       Final       Delta

Calcite          -2.70   -11.18     -8.48    0.000e+00           0   0.000e+00

-----------------------------Solution composition------------------------------

	Elements           Molality       Moles

	C                 1.003e+00   1.003e+00
	Ca                3.122e-03   3.122e-03
	Cl                9.999e-04   9.999e-04
	Na                9.999e-04   9.999e-04

----------------------------Description of solution----------------------------

                                       pH  =   4.107      Charge balance
                                       pe  =  14.214      Adjusted to redox equilibrium
                        Activity of water  =   0.983
                           Ionic strength  =   1.014e-02
                       Mass of water (kg)  =   1.000e+00
                 Total alkalinity (eq/kg)  =   6.243e-03
                       Total CO2 (mol/kg)  =   1.003e+00
                      Temperature (deg C)  =  25.00
                  Electrical balance (eq)  =   3.129e-16
 Percent error, 100*(Cat-|An|)/(Cat+|An|)  =   0.00
                               Iterations  =   1
                                  Total H  = 1.110188e+02
                                  Total O  = 5.751867e+01

----------------------------Distribution of species----------------------------

                                               Log       Log       Log    mole V
   Species          Molality    Activity  Molality  Activity     Gamma   cm3/mol

   H+              8.572e-05   7.825e-05    -4.067    -4.107    -0.040      0.00
   OH-             1.398e-10   1.257e-10    -9.855    -9.901    -0.046     (0)  
   H2O             5.551e+01   9.829e-01     1.744    -0.008     0.000     18.07
C(-4)         0.000e+00
   CH4             0.000e+00   0.000e+00  -122.160  -122.159     0.001     (0)  
C(4)          1.003e+00
   CO2             9.967e-01   9.991e-01    -0.001    -0.000     0.001     (0)  
   HCO3-           6.170e-03   5.581e-03    -2.210    -2.253    -0.044     (0)  
   CaHCO3+         1.562e-04   1.413e-04    -3.806    -3.850    -0.044     (0)  
   NaHCO3          2.818e-06   2.824e-06    -5.550    -5.549     0.001     (0)  
   CaCO3           1.112e-08   1.115e-08    -7.954    -7.953     0.001     (0)  
   CO3-2           4.996e-09   3.345e-09    -8.301    -8.476    -0.174     (0)  
   NaCO3-          6.218e-11   5.604e-11   -10.206   -10.251    -0.045     (0)  
Ca            3.122e-03
   Ca+2            2.965e-03   1.984e-03    -2.528    -2.702    -0.175     (0)  
   CaHCO3+         1.562e-04   1.413e-04    -3.806    -3.850    -0.044     (0)  
   CaCO3           1.112e-08   1.115e-08    -7.954    -7.953     0.001     (0)  
   CaOH+           4.588e-12   4.135e-12   -11.338   -11.383    -0.045     (0)  
Cl            9.999e-04
   Cl-             9.999e-04   8.997e-04    -3.000    -3.046    -0.046     (0)  
H(0)          3.228e-40
   H2              1.614e-40   1.618e-40   -39.792   -39.791     0.001     (0)  
Na            9.999e-04
   Na+             9.971e-04   8.998e-04    -3.001    -3.046    -0.045     (0)  
   NaHCO3          2.818e-06   2.824e-06    -5.550    -5.549     0.001     (0)  
   NaCO3-          6.218e-11   5.604e-11   -10.206   -10.251    -0.045     (0)  
   NaOH            7.450e-14   7.467e-14   -13.128   -13.127     0.001     (0)  
O(0)          3.070e-13
   O2              1.535e-13   1.538e-13   -12.814   -12.813     0.001     (0)  

------------------------------Saturation indices-------------------------------

	Phase               SI   log IAP   log K(298 K,   1 atm)

	Aragonite        -2.84    -11.18   -8.34  CaCO3
	Calcite          -2.70    -11.18   -8.48  CaCO3
	CH4(g)         -119.32   -122.16   -2.84  CH4
	CO2(g)            1.47     -0.00   -1.47  CO2
	H2(g)           -36.60      6.40   43.00  H2
	O2(g)            -9.92    -12.81   -2.89  O2


------------------
End of simulation.
------------------

------------------------------------
Reading input data for simulation 8.
------------------------------------

	SOLUTION 8 #New Version 
	units mol/kgw 
	temp 25.000000 
	Ca       6.872871769008e-03     # comp 
	Na       9.998700038468e-04     # comp 
	Cl       9.998700038467e-04     # comp 
	C(4)       1.006742875615e+00     # comp 
	pH       4.421768947572e+00 charge        # comp 
	pe       1.382473754862e+01       # comp 
	EQUILIBRIUM_PHASES   8
	Calcite 0.000000000000e+00  0.000000000000e+00       # comp 
	END
-------------------------------------------
Beginning of initial solution calculations.
-------------------------------------------

Initial solution 8.	

-----------------------------Solution composition------------------------------

	Elements           Molality       Moles

	C(4)              1.007e+00   1.007e+00
	Ca                6.873e-03   6.873e-03
	Cl                9.999e-04   9.999e-04
	Na                9.999e-04   9.999e-04

----------------------------Description of solution----------------------------

                                       pH  =   4.422      Charge balance
                                       pe  =  13.825    
                        Activity of water  =   0.983
                           Ionic strength  =   2.043e-02
                       Mass of water (kg)  =   1.000e+00
                 Total alkalinity (eq/kg)  =   1.375e-02
                       Total CO2 (mol/kg)  =   1.007e+00
                      Temperature (deg C)  =  25.00
                  Electrical balance (eq)  =   5.500e-17
 Percent error, 100*(Cat-|An|)/(Cat+|An|)  =   0.00
                               Iterations  =  10
                                  Total H  = 1.110263e+02
                                  Total O  = 5.753349e+01

----------------------------Distribution of species----------------------------

                                               Log       Log       Log    mole V
   Species          Molality    Activity  Molality  Activity     Gamma   cm3/mol

   H+              4.260e-05   3.786e-05    -4.371    -4.422    -0.051      0.00
   OH-             3.001e-10   2.598e-10    -9.523    -9.585    -0.063     (0)  
   H2O             5.551e+01   9.827e-01     1.744    -0.008     0.000     18.07
C(4)          1.007e+00
   CO2             9.930e-01   9.976e-01    -0.003    -0.001     0.002     (0)  
   HCO3-           1.317e-02   1.152e-02    -1.880    -1.939    -0.058     (0)  
   CaHCO3+         6.151e-04   5.380e-04    -3.211    -3.269    -0.058     (0)  
   NaHCO3          5.585e-06   5.611e-06    -5.253    -5.251     0.002     (0)  
   CaCO3           8.734e-08   8.775e-08    -7.059    -7.057     0.002     (0)  
   CO3-2           2.437e-08   1.427e-08    -7.613    -7.846    -0.233     (0)  
   NaCO3-          2.646e-10   2.301e-10    -9.577    -9.638    -0.061     (0)  
Ca            6.873e-03
   Ca+2            6.258e-03   3.661e-03    -2.204    -2.436    -0.233     (0)  
   CaHCO3+         6.151e-04   5.380e-04    -3.211    -3.269    -0.058     (0)  
   CaCO3           8.734e-08   8.775e-08    -7.059    -7.057     0.002     (0)  
   CaOH+           1.814e-11   1.577e-11   -10.741   -10.802    -0.061     (0)  
Cl            9.999e-04
   Cl-             9.999e-04   8.663e-04    -3.000    -3.062    -0.062     (0)  
H(0)          4.528e-40
   H2              2.264e-40   2.275e-40   -39.645   -39.643     0.002     (0)  
Na            9.999e-04
   Na+             9.943e-04   8.663e-04    -3.002    -3.062    -0.060     (0)  
   NaHCO3          5.585e-06   5.611e-06    -5.253    -5.251     0.002     (0)  
   NaCO3-          2.646e-10   2.301e-10    -9.577    -9.638    -0.061     (0)  
   NaOH            1.479e-13   1.486e-13   -12.830   -12.828     0.002     (0)  
O(0)          1.549e-13
   O2              7.745e-14   7.781e-14   -13.111   -13.109     0.002     (0)  

------------------------------Saturation indices-------------------------------

	Phase               SI   log IAP   log K(298 K,   1 atm)

	Aragonite        -1.95    -10.28   -8.34  CaCO3
	Calcite          -1.80    -10.28   -8.48  CaCO3
	CO2(g)            1.47     -0.00   -1.47  CO2
	H2(g)           -36.45      6.55   43.00  H2
	O2(g)           -10.22    -13.11   -2.89  O2


-----------------------------------------
Beginning of batch-reaction calculations.
-----------------------------------------

Reaction step 1.

Using solution 8.	
Using pure phase assemblage 8.	

-------------------------------Phase assemblage--------------------------------

                                                      Moles in assemblage
Phase               SI  log IAP  log K(T, P)   Initial       Final       Delta

Calcite          -1.80   -10.28     -8.48    0.000e+00           0   0.000e+00

-----------------------------Solution composition------------------------------

	Elements           Molality       Moles

	C                 1.007e+00   1.007e+00
	Ca                6.873e-03   6.873e-03
	Cl                9.999e-04   9.999e-04
	Na                9.999e-04   9.999e-04

----------------------------Description of solution----------------------------

                                       pH  =   4.422      Charge balance
                                       pe  =  13.823      Adjusted to redox equilibrium
                        Activity of water  =   0.983
                           Ionic strength  =   2.043e-02
                       Mass of water (kg)  =   1.000e+00
                 Total alkalinity (eq/kg)  =   1.375e-02
                       Total CO2 (mol/kg)  =   1.007e+00
                      Temperature (deg C)  =  25.00
                  Electrical balance (eq)  =   2.833e-17
 Percent error, 100*(Cat-|An|)/(Cat+|An|)  =   0.00
                               Iterations  =   1
                                  Total H  = 1.110263e+02
                                  Total O  = 5.753349e+01

----------------------------Distribution of species----------------------------

                                               Log       Log       Log    mole V
   Species          Molality    Activity  Molality  Activity     Gamma   cm3/mol

   H+              4.260e-05   3.786e-05    -4.371    -4.422    -0.051      0.00
   OH-             3.001e-10   2.598e-10    -9.523    -9.585    -0.063     (0)  
   H2O             5.551e+01   9.827e-01     1.744    -0.008     0.000     18.07
C(-4)         0.000e+00
   CH4             0.000e+00   0.000e+00  -121.560  -121.558     0.002     (0)  
C(4)          1.007e+00
   CO2             9.930e-01   9.976e-01    -0.003    -0.001     0.002     (0)  
   HCO3-           1.317e-02   1.152e-02    -1.880    -1.939    -0.058     (0)  
   CaHCO3+         6.151e-04   5.380e-04    -3.211    -3.269    -0.058     (0)  
   NaHCO3          5.585e-06   5.611e-06    -5.253    -5.251     0.002     (0)  
   CaCO3           8.734e-08   8.775e-08    -7.059    -7.057     0.002     (0)  
   CO3-2           2.437e-08   1.427e-08    -7.613    -7.846    -0.233     (0)  
   NaCO3-          2.646e-10   2.301e-10    -9.577    -9.638    -0.061     (0)  
Ca            6.873e-03
   Ca+2            6.258e-03   3.661e-03    -2.204    -2.436    -0.233     (0)  
   CaHCO3+         6.151e-04   5.380e-04    -3.211    -3.269    -0.058     (0)  
   CaCO3           8.734e-08   8.775e-08    -7.059    -7.057     0.002     (0)  
   CaOH+           1.814e-11   1.577e-11   -10.741   -10.802    -0.061     (0)  
Cl            9.999e-04
   Cl-             9.999e-04   8.663e-04    -3.000    -3.062    -0.062     (0)  
H(0)          4.555e-40
   H2              2.277e-40   2.288e-40   -39.643   -39.641     0.002     (0)  
Na            9.999e-04
   Na+             9.943e-04   8.663e-04    -3.002    -3.062    -0.060     (0)  
   NaHCO3          5.585e-06   5.611e-06    -5.253    -5.251     0.002     (0)  
   NaCO3-          2.646e-10   2.301e-10    -9.577    -9.638    -0.061     (0)  
   NaOH            1.479e-13   1.486e-13   -12.830   -12.828     0.002     (0)  
O(0)          1.531e-13
   O2              7.654e-14   7.690e-14   -13.116   -13.114     0.002     (0)  

------------------------------Saturation indices-------------------------------

	Phase               SI   log IAP   log K(298 K,   1 atm)

	Aragonite        -1.95    -10.28   -8.34  CaCO3
	Calcite          -1.80    -10.28   -8.48  CaCO3
	CH4(g)         -118.71   -121.56   -2.84  CH4
	CO2(g)            1.47     -0.00   -1.47  CO2
	H2(g)           -36.45      6.55   43.00  H2
	O2(g)           -10.22    -13.11   -2.89  O2


------------------
End of simulation.
------------------

------------------------------------
Reading input data for simulation 9.
------------------------------------

	SOLUTION 9 #New Version 
	units mol/kgw 
	temp 25.000000 
	Ca       1.509095985541e-02     # comp 
	Na       9.997145637155e-04     # comp 
	Cl       9.997145637151e-04     # comp 
	C(4)       1.014805523570e+00     # comp 
	pH       4.731609530956e+00 charge        # comp 
	pe       2.404246176645e-01       # comp 
	EQUILIBRIUM_PHASES   9
	Calcite 0.000000000000e+00  0.000000000000e+00       # comp 
	END
-------------------------------------------
Beginning of initial solution calculations.
-------------------------------------------

Initial solution 9.	

-----------------------------Solution composition------------------------------

	Elements           Molality       Moles

	C(4)              1.015e+00   1.015e+00
	Ca                1.509e-02   1.509e-02
	Cl                9.997e-04   9.997e-04
	Na                9.997e-04   9.997e-04

----------------------------Description of solution----------------------------

                                       pH  =   4.732      Charge balance
                                       pe  =   0.240    
                        Activity of water  =   0.982
                           Ionic strength  =   4.176e-02
                       Mass of water (kg)  =   1.000e+00
                 Total alkalinity (eq/kg)  =   3.018e-02
                       Total CO2 (mol/kg)  =   1.015e+00
                      Temperature (deg C)  =  25.00
                  Electrical balance (eq)  =   1.258e-17
 Percent error, 100*(Cat-|An|)/(Cat+|An|)  =   0.00
                               Iterations  =  11
                                  Total H  = 1.110427e+02
                                  Total O  = 5.756603e+01

----------------------------Distribution of species----------------------------

                                               Log       Log       Log    mole V
   Species          Molality    Activity  Molality  Activity     Gamma   cm3/mol

   H+              2.154e-05   1.855e-05    -4.667    -4.732    -0.065      0.00
   OH-             6.439e-10   5.302e-10    -9.191    -9.276    -0.084     (0)  
   H2O             5.551e+01   9.825e-01     1.744    -0.008     0.000     18.07
C(4)          1.015e+00
   CO2             9.846e-01   9.941e-01    -0.007    -0.003     0.004     (0)  
   HCO3-           2.793e-02   2.342e-02    -1.554    -1.630    -0.076     (0)  
   CaHCO3+         2.263e-03   1.898e-03    -2.645    -2.722    -0.076     (0)  
   NaHCO3          1.075e-05   1.086e-05    -4.968    -4.964     0.004     (0)  
   CaCO3           6.257e-07   6.317e-07    -6.204    -6.199     0.004     (0)  
   CO3-2           1.198e-07   5.920e-08    -6.922    -7.228    -0.306     (0)  
   NaCO3-          1.093e-09   9.088e-10    -8.961    -9.042    -0.080     (0)  
Ca            1.509e-02
   Ca+2            1.283e-02   6.352e-03    -1.892    -2.197    -0.305     (0)  
   CaHCO3+         2.263e-03   1.898e-03    -2.645    -2.722    -0.076     (0)  
   CaCO3           6.257e-07   6.317e-07    -6.204    -6.199     0.004     (0)  
   CaOH+           6.715e-11   5.583e-11   -10.173   -10.253    -0.080     (0)  
Cl            9.997e-04
   Cl-             9.997e-04   8.243e-04    -3.000    -3.084    -0.084     (0)  
H(0)          1.595e-13
   H2              7.974e-14   8.051e-14   -13.098   -13.094     0.004     (0)  
Na            9.997e-04
   Na+             9.890e-04   8.244e-04    -3.005    -3.084    -0.079     (0)  
   NaHCO3          1.075e-05   1.086e-05    -4.968    -4.964     0.004     (0)  
   NaCO3-          1.093e-09   9.088e-10    -8.961    -9.042    -0.080     (0)  
   NaOH            2.857e-13   2.885e-13   -12.544   -12.540     0.004     (0)  
O(0)          0.000e+00
   O2              0.000e+00   0.000e+00   -66.211   -66.207     0.004     (0)  

------------------------------Saturation indices-------------------------------

	Phase               SI   log IAP   log K(298 K,   1 atm)

	Aragonite        -1.09     -9.42   -8.34  CaCO3
	Calcite          -0.94     -9.42   -8.48  CaCO3
	CO2(g)            1.47     -0.00   -1.47  CO2
	H2(g)            -9.90     33.10   43.00  H2
	O2(g)           -63.31    -66.21   -2.89  O2


-----------------------------------------
Beginning of batch-reaction calculations.
-----------------------------------------

Reaction step 1.

Using solution 9.	
Using pure phase assemblage 9.	

-------------------------------Phase assemblage--------------------------------

                                                      Moles in assemblage
Phase               SI  log IAP  log K(T, P)   Initial       Final       Delta

Calcite          -0.94    -9.42     -8.48    0.000e+00           0   0.000e+00

-----------------------------Solution composition------------------------------

	Elements           Molality       Moles

	C                 1.015e+00   1.015e+00
	Ca                1.509e-02   1.509e-02
	Cl                9.997e-04   9.997e-04
	Na                9.997e-04   9.997e-04

----------------------------Description of solution----------------------------

                                       pH  =   4.732      Charge balance
                                       pe  =   0.247      Adjusted to redox equilibrium
                        Activity of water  =   0.982
                           Ionic strength  =   4.176e-02
                       Mass of water (kg)  =   1.000e+00
                 Total alkalinity (eq/kg)  =   3.018e-02
                       Total CO2 (mol/kg)  =   1.015e+00
                      Temperature (deg C)  =  25.00
                  Electrical balance (eq)  =   2.114e-14
 Percent error, 100*(Cat-|An|)/(Cat+|An|)  =   0.00
                               Iterations  =   1
                                  Total H  = 1.110427e+02
                                  Total O  = 5.756603e+01

----------------------------Distribution of species----------------------------

                                               Log       Log       Log    mole V
   Species          Molality    Activity  Molality  Activity     Gamma   cm3/mol

   H+              2.154e-05   1.855e-05    -4.667    -4.732    -0.065      0.00
   OH-             6.439e-10   5.302e-10    -9.191    -9.276    -0.084     (0)  
   H2O             5.551e+01   9.825e-01     1.744    -0.008     0.000     18.07
C(-4)         3.747e-16
   CH4             3.747e-16   3.783e-16   -15.426   -15.422     0.004     (0)  
C(4)          1.015e+00
   CO2             9.846e-01   9.941e-01    -0.007    -0.003     0.004     (0)  
   HCO3-           2.793e-02   2.342e-02    -1.554    -1.630    -0.076     (0)  
   CaHCO3+         2.263e-03   1.898e-03    -2.645    -2.722    -0.076     (0)  
   NaHCO3          1.075e-05   1.086e-05    -4.968    -4.964     0.004     (0)  
   CaCO3           6.257e-07   6.317e-07    -6.204    -6.199     0.004     (0)  
   CO3-2           1.198e-07   5.920e-08    -6.922    -7.228    -0.306     (0)  
   NaCO3-          1.093e-09   9.088e-10    -8.961    -9.042    -0.080     (0)  
Ca            1.509e-02
   Ca+2            1.283e-02   6.352e-03    -1.892    -2.197    -0.305     (0)  
   CaHCO3+         2.263e-03   1.898e-03    -2.645    -2.722    -0.076     (0)  
   CaCO3           6.257e-07   6.317e-07    -6.204    -6.199     0.004     (0)  
   CaOH+           6.715e-11   5.583e-11   -10.173   -10.253    -0.080     (0)  
Cl            9.997e-04
   Cl-             9.997e-04   8.243e-04    -3.000    -3.084    -0.084     (0)  
H(0)          1.551e-13
   H2              7.754e-14   7.829e-14   -13.110   -13.106     0.004     (0)  
Na            9.997e-04
   Na+             9.890e-04   8.244e-04    -3.005    -3.084    -0.079     (0)  
   NaHCO3          1.075e-05   1.086e-05    -4.968    -4.964     0.004     (0)  
   NaCO3-          1.093e-09   9.088e-10    -8.961    -9.042    -0.080     (0)  
   NaOH            2.857e-13   2.885e-13   -12.544   -12.540     0.004     (0)  
O(0)          0.000e+00
   O2              0.000e+00   0.000e+00   -66.187   -66.183     0.004     (0)  

------------------------------Saturation indices-------------------------------

	Phase               SI   log IAP   log K(298 K,   1 atm)

	Aragonite        -1.09     -9.42   -8.34  CaCO3
	Calcite          -0.94     -9.42   -8.48  CaCO3
	CH4(g)          -12.58    -15.42   -2.84  CH4
	CO2(g)            1.47     -0.00   -1.47  CO2
	H2(g)            -9.91     33.08   43.00  H2
	O2(g)           -63.29    -66.18   -2.89  O2


------------------
End of simulation.
------------------

-------------------------------------
Reading input data for simulation 10.
-------------------------------------

	SOLUTION 10 #New Version 
	units mol/kgw 
	temp 25.000000 
	Ca       1.787328052677e-02     # comp 
	Na       9.996619218807e-04     # comp 
	Cl       9.996619218807e-04     # comp 
	C(4)       1.017535202406e+00     # comp 
	pH       5.079945581638e+00 charge        # comp 
	pe       -5.198164565259e-01       # comp 
	EQUILIBRIUM_PHASES   10
	Calcite 0.000000000000e+00  6.375724406280e+00       # comp 
	END
-------------------------------------------
Beginning of initial solution calculations.
-------------------------------------------

Initial solution 10.	

-----------------------------Solution composition------------------------------

	Elements           Molality       Moles

	C(4)              1.018e+00   1.018e+00
	Ca                1.787e-02   1.787e-02
	Cl                9.997e-04   9.997e-04
	Na                9.997e-04   9.997e-04

----------------------------Description of solution----------------------------

                                       pH  =   4.797      Charge balance
                                       pe  =  -0.520    
                        Activity of water  =   0.982
                           Ionic strength  =   4.869e-02
                       Mass of water (kg)  =   1.000e+00
                 Total alkalinity (eq/kg)  =   3.575e-02
                       Total CO2 (mol/kg)  =   1.018e+00
                      Temperature (deg C)  =  25.00
                  Electrical balance (eq)  =  -9.057e-16
 Percent error, 100*(Cat-|An|)/(Cat+|An|)  =  -0.00
                               Iterations  =  10
                                  Total H  = 1.110482e+02
                                  Total O  = 5.757705e+01

----------------------------Distribution of species----------------------------

                                               Log       Log       Log    mole V
   Species          Molality    Activity  Molality  Activity     Gamma   cm3/mol

   H+              1.865e-05   1.594e-05    -4.729    -4.797    -0.068      0.00
   OH-             7.586e-10   6.169e-10    -9.120    -9.210    -0.090     (0)  
   H2O             5.551e+01   9.824e-01     1.744    -0.008     0.000     18.07
C(4)          1.018e+00
   CO2             9.818e-01   9.928e-01    -0.008    -0.003     0.005     (0)  
   HCO3-           3.278e-02   2.721e-02    -1.484    -1.565    -0.081     (0)  
   CaHCO3+         2.968e-03   2.463e-03    -2.528    -2.608    -0.081     (0)  
   NaHCO3          1.232e-05   1.246e-05    -4.909    -4.904     0.005     (0)  
   CaCO3           9.435e-07   9.541e-07    -6.025    -6.020     0.005     (0)  
   CO3-2           1.686e-07   8.005e-08    -6.773    -7.097    -0.324     (0)  
   NaCO3-          1.476e-09   1.214e-09    -8.831    -8.916    -0.085     (0)  
Ca            1.787e-02
   Ca+2            1.490e-02   7.095e-03    -1.827    -2.149    -0.322     (0)  
   CaHCO3+         2.968e-03   2.463e-03    -2.528    -2.608    -0.081     (0)  
   CaCO3           9.435e-07   9.541e-07    -6.025    -6.020     0.005     (0)  
   CaOH+           8.820e-11   7.256e-11   -10.055   -10.139    -0.085     (0)  
Cl            9.997e-04
   Cl-             9.997e-04   8.144e-04    -3.000    -3.089    -0.089     (0)  
H(0)          3.898e-12
[...]

                                               Log       Log       Log    mole V
   Species          Molality    Activity  Molality  Activity     Gamma   cm3/mol

   H+              9.963e-06   8.244e-06    -5.002    -5.084    -0.082      0.00
   OH-             1.558e-09   1.192e-09    -8.808    -8.924    -0.116     (0)  
   H2O             5.551e+01   9.819e-01     1.744    -0.008     0.000     18.07
C(-4)         1.360e-15
   CH4             1.360e-15   1.390e-15   -14.866   -14.857     0.010     (0)  
C(4)          1.037e+00
   CO2             9.617e-01   9.830e-01    -0.017    -0.007     0.010     (0)  
   HCO3-           6.580e-02   5.207e-02    -1.182    -1.283    -0.102     (0)  
   CaHCO3+         9.389e-03   7.430e-03    -2.027    -2.129    -0.102     (0)  
   NaHCO3          2.199e-05   2.248e-05    -4.658    -4.648     0.010     (0)  
   CaCO3           5.444e-06   5.565e-06    -5.264    -5.255     0.010     (0)  
   CO3-2           7.553e-07   2.962e-07    -6.122    -6.528    -0.407     (0)  
   NaCO3-          5.401e-09   4.235e-09    -8.268    -8.373    -0.106     (0)  
Ca            3.760e-02
   Ca+2            2.821e-02   1.118e-02    -1.550    -1.951    -0.402     (0)  
   CaHCO3+         9.389e-03   7.430e-03    -2.027    -2.129    -0.102     (0)  
   CaCO3           5.444e-06   5.565e-06    -5.264    -5.255     0.010     (0)  
   CaOH+           2.819e-10   2.211e-10    -9.550    -9.655    -0.106     (0)  
Cl            9.993e-04
   Cl-             9.993e-04   7.674e-04    -3.000    -3.115    -0.115     (0)  
H(0)          2.126e-13
   H2              1.063e-13   1.087e-13   -12.973   -12.964     0.010     (0)  
Na            9.993e-04
   Na+             9.773e-04   7.678e-04    -3.010    -3.115    -0.105     (0)  
   NaHCO3          2.199e-05   2.248e-05    -4.658    -4.648     0.010     (0)  
   NaCO3-          5.401e-09   4.235e-09    -8.268    -8.373    -0.106     (0)  
   NaOH            5.911e-13   6.042e-13   -12.228   -12.219     0.010     (0)  
O(0)          0.000e+00
   O2              0.000e+00   0.000e+00   -66.478   -66.468     0.010     (0)  

------------------------------Saturation indices-------------------------------

	Phase               SI   log IAP   log K(298 K,   1 atm)

	Aragonite        -0.14     -8.48   -8.34  CaCO3
	Calcite           0.00     -8.48   -8.48  CaCO3
	CH4(g)          -12.01    -14.86   -2.84  CH4
	CO2(g)            1.46     -0.01   -1.47  CO2
	H2(g)            -9.77     33.23   43.00  H2
	O2(g)           -63.58    -66.47   -2.89  O2


------------------
End of simulation.
------------------

-------------------------------------
Reading input data for simulation 20.
-------------------------------------

	SOLUTION 20 #New Version 
	units mol/kgw 
	temp 25.000000 
	Ca       3.760317710791e-02     # comp 
	Na       9.992886992457e-04     # comp 
	Cl       9.992886992457e-04     # comp 
	C(4)       1.036891876349e+00     # comp 
	pH       5.083848115113e+00 charge        # comp 
	pe       -1.352380190172e-01       # comp 
	EQUILIBRIUM_PHASES   20
	Calcite 0.000000000000e+00  1.349399201413e+01       # comp 
	END
-------------------------------------------
Beginning of initial solution calculations.
-------------------------------------------

Initial solution 20.	

-----------------------------Solution composition------------------------------

	Elements           Molality       Moles

	C(4)              1.037e+00   1.037e+00
	Ca                3.760e-02   3.760e-02
	Cl                9.993e-04   9.993e-04
	Na                9.993e-04   9.993e-04

----------------------------Description of solution----------------------------

                                       pH  =   5.084      Charge balance
                                       pe  =  -0.135    
                        Activity of water  =   0.982
                           Ionic strength  =   9.500e-02
                       Mass of water (kg)  =   1.000e+00
                 Total alkalinity (eq/kg)  =   7.521e-02
                       Total CO2 (mol/kg)  =   1.037e+00
                      Temperature (deg C)  =  25.00
                  Electrical balance (eq)  =   6.081e-15
 Percent error, 100*(Cat-|An|)/(Cat+|An|)  =   0.00
                               Iterations  =  10
                                  Total H  = 1.110876e+02
                                  Total O  = 5.765521e+01

----------------------------Distribution of species----------------------------

                                               Log       Log       Log    mole V
   Species          Molality    Activity  Molality  Activity     Gamma   cm3/mol

   H+              9.964e-06   8.245e-06    -5.002    -5.084    -0.082      0.00
   OH-             1.557e-09   1.192e-09    -8.808    -8.924    -0.116     (0)  
   H2O             5.551e+01   9.819e-01     1.744    -0.008     0.000     18.07
C(4)          1.037e+00
   CO2             9.617e-01   9.830e-01    -0.017    -0.007     0.010     (0)  
   HCO3-           6.579e-02   5.207e-02    -1.182    -1.283    -0.102     (0)  
   CaHCO3+         9.388e-03   7.429e-03    -2.027    -2.129    -0.102     (0)  
   NaHCO3          2.199e-05   2.248e-05    -4.658    -4.648     0.010     (0)  
   CaCO3           5.444e-06   5.564e-06    -5.264    -5.255     0.010     (0)  
   CO3-2           7.552e-07   2.962e-07    -6.122    -6.528    -0.407     (0)  
   NaCO3-          5.400e-09   4.234e-09    -8.268    -8.373    -0.106     (0)  
Ca            3.760e-02
   Ca+2            2.821e-02   1.118e-02    -1.550    -1.951    -0.402     (0)  
   CaHCO3+         9.388e-03   7.429e-03    -2.027    -2.129    -0.102     (0)  
   CaCO3           5.444e-06   5.564e-06    -5.264    -5.255     0.010     (0)  
   CaOH+           2.819e-10   2.210e-10    -9.550    -9.656    -0.106     (0)  
Cl            9.993e-04
   Cl-             9.993e-04   7.674e-04    -3.000    -3.115    -0.115     (0)  
H(0)          1.755e-13
   H2              8.776e-14   8.970e-14   -13.057   -13.047     0.010     (0)  
Na            9.993e-04
   Na+             9.773e-04   7.678e-04    -3.010    -3.115    -0.105     (0)  
   NaHCO3          2.199e-05   2.248e-05    -4.658    -4.648     0.010     (0)  
   NaCO3-          5.400e-09   4.234e-09    -8.268    -8.373    -0.106     (0)  
   NaOH            5.911e-13   6.041e-13   -12.228   -12.219     0.010     (0)  
O(0)          0.000e+00
   O2              0.000e+00   0.000e+00   -66.311   -66.302     0.010     (0)  

------------------------------Saturation indices-------------------------------

	Phase               SI   log IAP   log K(298 K,   1 atm)

	Aragonite        -0.14     -8.48   -8.34  CaCO3
	Calcite          -0.00     -8.48   -8.48  CaCO3
	CO2(g)            1.46     -0.01   -1.47  CO2
	H2(g)            -9.86     33.14   43.00  H2
	O2(g)           -63.41    -66.30   -2.89  O2


-----------------------------------------
Beginning of batch-reaction calculations.
-----------------------------------------

Reaction step 1.

Using solution 20.	
Using pure phase assemblage 20.	

-------------------------------Phase assemblage--------------------------------

                                                      Moles in assemblage
Phase               SI  log IAP  log K(T, P)   Initial       Final       Delta

Calcite          -0.00    -8.48     -8.48    1.349e+01   1.349e+01  -1.586e-06

-----------------------------Solution composition------------------------------

	Elements           Molality       Moles

	C                 1.037e+00   1.037e+00
	Ca                3.760e-02   3.760e-02
	Cl                9.993e-04   9.993e-04
	Na                9.993e-04   9.993e-04

----------------------------Description of solution----------------------------

                                       pH  =   5.084      Charge balance
                                       pe  =  -0.144      Adjusted to redox equilibrium
                        Activity of water  =   0.982
                           Ionic strength  =   9.501e-02
                       Mass of water (kg)  =   1.000e+00
                 Total alkalinity (eq/kg)  =   7.521e-02
                       Total CO2 (mol/kg)  =   1.037e+00
                      Temperature (deg C)  =  25.00
                  Electrical balance (eq)  =   6.515e-15
 Percent error, 100*(Cat-|An|)/(Cat+|An|)  =   0.00
                               Iterations  =   2
                                  Total H  = 1.110876e+02
                                  Total O  = 5.765522e+01

----------------------------Distribution of species----------------------------

                                               Log       Log       Log    mole V
   Species          Molality    Activity  Molality  Activity     Gamma   cm3/mol

   H+              9.963e-06   8.244e-06    -5.002    -5.084    -0.082      0.00
   OH-             1.558e-09   1.192e-09    -8.808    -8.924    -0.116     (0)  
   H2O             5.551e+01   9.819e-01     1.744    -0.008     0.000     18.07
C(-4)         7.401e-16
   CH4             7.401e-16   7.565e-16   -15.131   -15.121     0.010     (0)  
C(4)          1.037e+00
   CO2             9.617e-01   9.830e-01    -0.017    -0.007     0.010     (0)  
   HCO3-           6.580e-02   5.207e-02    -1.182    -1.283    -0.102     (0)  
   CaHCO3+         9.389e-03   7.430e-03    -2.027    -2.129    -0.102     (0)  
   NaHCO3          2.199e-05   2.248e-05    -4.658    -4.648     0.010     (0)  
   CaCO3           5.444e-06   5.565e-06    -5.264    -5.255     0.010     (0)  
   CO3-2           7.553e-07   2.962e-07    -6.122    -6.528    -0.407     (0)  
   NaCO3-          5.401e-09   4.235e-09    -8.268    -8.373    -0.106     (0)  
Ca            3.760e-02
   Ca+2            2.821e-02   1.118e-02    -1.550    -1.951    -0.402     (0)  
   CaHCO3+         9.389e-03   7.430e-03    -2.027    -2.129    -0.102     (0)  
   CaCO3           5.444e-06   5.565e-06    -5.264    -5.255     0.010     (0)  
   CaOH+           2.819e-10   2.211e-10    -9.550    -9.655    -0.106     (0)  
Cl            9.993e-04
   Cl-             9.993e-04   7.674e-04    -3.000    -3.115    -0.115     (0)  
H(0)          1.826e-13
   H2              9.131e-14   9.333e-14   -13.039   -13.030     0.010     (0)  
Na            9.993e-04
   Na+             9.773e-04   7.678e-04    -3.010    -3.115    -0.105     (0)  
   NaHCO3          2.199e-05   2.248e-05    -4.658    -4.648     0.010     (0)  
   NaCO3-          5.401e-09   4.235e-09    -8.268    -8.373    -0.106     (0)  
   NaOH            5.911e-13   6.042e-13   -12.228   -12.219     0.010     (0)  
O(0)          0.000e+00
   O2              0.000e+00   0.000e+00   -66.345   -66.336     0.010     (0)  

------------------------------Saturation indices-------------------------------

	Phase               SI   log IAP   log K(298 K,   1 atm)

	Aragonite        -0.14     -8.48   -8.34  CaCO3
	Calcite          -0.00     -8.48   -8.48  CaCO3
	CH4(g)          -12.28    -15.12   -2.84  CH4
	CO2(g)            1.46     -0.01   -1.47  CO2
	H2(g)            -9.84     33.16   43.00  H2
	O2(g)           -63.44    -66.34   -2.89  O2


------------------
End of simulation.
------------------

-------------------------------------
Reading input data for simulation 21.
-------------------------------------

	SOLUTION 21 #New Version 
	units mol/kgw 
	temp 25.000000 
	Ca       3.760381406779e-02     # comp 
	Na       9.992886872000e-04     # comp 
	Cl       9.992886871998e-04     # comp 
	C(4)       1.036892501262e+00     # comp 
	pH       5.083848241246e+00 charge        # comp 
	pe       -1.848207307438e-01       # comp 
	EQUILIBRIUM_PHASES   21
	Calcite 0.000000000000e+00  1.349602616345e+01       # comp 
	END
-------------------------------------------
Beginning of initial solution calculations.
-------------------------------------------

Initial solution 21.	

-----------------------------Solution composition------------------------------

	Elements           Molality       Moles

	C(4)              1.037e+00   1.037e+00
	Ca                3.760e-02   3.760e-02
	Cl                9.993e-04   9.993e-04
	Na                9.993e-04   9.993e-04

----------------------------Description of solution----------------------------

                                       pH  =   5.084      Charge balance
                                       pe  =  -0.185    
                        Activity of water  =   0.982
                           Ionic strength  =   9.501e-02
                       Mass of water (kg)  =   1.000e+00
                 Total alkalinity (eq/kg)  =   7.521e-02
                       Total CO2 (mol/kg)  =   1.037e+00
                      Temperature (deg C)  =  25.00
                  Electrical balance (eq)  =   5.966e-15
 Percent error, 100*(Cat-|An|)/(Cat+|An|)  =   0.00
                               Iterations  =  10
                                  Total H  = 1.110876e+02
                                  Total O  = 5.765521e+01

----------------------------Distribution of species----------------------------

                                               Log       Log       Log    mole V
   Species          Molality    Activity  Molality  Activity     Gamma   cm3/mol

   H+              9.964e-06   8.244e-06    -5.002    -5.084    -0.082      0.00
   OH-             1.558e-09   1.192e-09    -8.808    -8.924    -0.116     (0)  
   H2O             5.551e+01   9.819e-01     1.744    -0.008     0.000     18.07
C(4)          1.037e+00
   CO2             9.617e-01   9.830e-01    -0.017    -0.007     0.010     (0)  
   HCO3-           6.579e-02   5.207e-02    -1.182    -1.283    -0.102     (0)  
   CaHCO3+         9.388e-03   7.429e-03    -2.027    -2.129    -0.102     (0)  
   NaHCO3          2.199e-05   2.248e-05    -4.658    -4.648     0.010     (0)  
   CaCO3           5.444e-06   5.565e-06    -5.264    -5.255     0.010     (0)  
   CO3-2           7.552e-07   2.962e-07    -6.122    -6.528    -0.407     (0)  
   NaCO3-          5.400e-09   4.234e-09    -8.268    -8.373    -0.106     (0)  
Ca            3.760e-02
   Ca+2            2.821e-02   1.118e-02    -1.550    -1.951    -0.402     (0)  
   CaHCO3+         9.388e-03   7.429e-03    -2.027    -2.129    -0.102     (0)  
   CaCO3           5.444e-06   5.565e-06    -5.264    -5.255     0.010     (0)  
   CaOH+           2.819e-10   2.211e-10    -9.550    -9.656    -0.106     (0)  
Cl            9.993e-04
   Cl-             9.993e-04   7.674e-04    -3.000    -3.115    -0.115     (0)  
H(0)          2.205e-13
   H2              1.103e-13   1.127e-13   -12.958   -12.948     0.010     (0)  
Na            9.993e-04
   Na+             9.773e-04   7.678e-04    -3.010    -3.115    -0.105     (0)  
   NaHCO3          2.199e-05   2.248e-05    -4.658    -4.648     0.010     (0)  
   NaCO3-          5.400e-09   4.234e-09    -8.268    -8.373    -0.106     (0)  
   NaOH            5.911e-13   6.042e-13   -12.228   -12.219     0.010     (0)  
O(0)          0.000e+00
   O2              0.000e+00   0.000e+00   -66.509   -66.500     0.010     (0)  

------------------------------Saturation indices-------------------------------

	Phase               SI   log IAP   log K(298 K,   1 atm)

	Aragonite        -0.14     -8.48   -8.34  CaCO3
	Calcite          -0.00     -8.48   -8.48  CaCO3
	CO2(g)            1.46     -0.01   -1.47  CO2
	H2(g)            -9.76     33.24   43.00  H2
	O2(g)           -63.61    -66.50   -2.89  O2


-----------------------------------------
Beginning of batch-reaction calculations.
-----------------------------------------

Reaction step 1.

Using solution 21.	
Using pure phase assemblage 21.	

-------------------------------Phase assemblage--------------------------------

                                                      Moles in assemblage
Phase               SI  log IAP  log K(T, P)   Initial       Final       Delta

Calcite           0.00    -8.48     -8.48    1.350e+01   1.350e+01  -9.487e-07

-----------------------------Solution composition------------------------------

	Elements           Molality       Moles

	C                 1.037e+00   1.037e+00
	Ca                3.760e-02   3.760e-02
	Cl                9.993e-04   9.993e-04
	Na                9.993e-04   9.993e-04

----------------------------Description of solution----------------------------

                                       pH  =   5.084      Charge balance
                                       pe  =  -0.183      Adjusted to redox equilibrium
                        Activity of water  =   0.982
                           Ionic strength  =   9.501e-02
                       Mass of water (kg)  =   1.000e+00
                 Total alkalinity (eq/kg)  =   7.521e-02
                       Total CO2 (mol/kg)  =   1.037e+00
                      Temperature (deg C)  =  25.00
                  Electrical balance (eq)  =   5.982e-15
 Percent error, 100*(Cat-|An|)/(Cat+|An|)  =   0.00
                               Iterations  =   2
                                  Total H  = 1.110876e+02
                                  Total O  = 5.765522e+01

----------------------------Distribution of species----------------------------

                                               Log       Log       Log    mole V
   Species          Molality    Activity  Molality  Activity     Gamma   cm3/mol

   H+              9.963e-06   8.244e-06    -5.002    -5.084    -0.082      0.00
   OH-             1.558e-09   1.192e-09    -8.808    -8.924    -0.116     (0)  
   H2O             5.551e+01   9.819e-01     1.744    -0.008     0.000     18.07
C(-4)         1.511e-15
   CH4             1.511e-15   1.545e-15   -14.821   -14.811     0.010     (0)  
C(4)          1.037e+00
   CO2             9.617e-01   9.830e-01    -0.017    -0.007     0.010     (0)  
   HCO3-           6.580e-02   5.207e-02    -1.182    -1.283    -0.102     (0)  
   CaHCO3+         9.389e-03   7.430e-03    -2.027    -2.129    -0.102     (0)  
   NaHCO3          2.199e-05   2.248e-05    -4.658    -4.648     0.010     (0)  
   CaCO3           5.444e-06   5.565e-06    -5.264    -5.255     0.010     (0)  
   CO3-2           7.553e-07   2.962e-07    -6.122    -6.528    -0.407     (0)  
   NaCO3-          5.401e-09   4.235e-09    -8.268    -8.373    -0.106     (0)  
Ca            3.760e-02
   Ca+2            2.821e-02   1.118e-02    -1.550    -1.951    -0.402     (0)  
   CaHCO3+         9.389e-03   7.430e-03    -2.027    -2.129    -0.102     (0)  
   CaCO3           5.444e-06   5.565e-06    -5.264    -5.255     0.010     (0)  
   CaOH+           2.819e-10   2.211e-10    -9.550    -9.655    -0.106     (0)  
Cl            9.993e-04
   Cl-             9.993e-04   7.674e-04    -3.000    -3.115    -0.115     (0)  
H(0)          2.183e-13
   H2              1.091e-13   1.116e-13   -12.962   -12.952     0.010     (0)  
Na            9.993e-04
   Na+             9.773e-04   7.678e-04    -3.010    -3.115    -0.105     (0)  
   NaHCO3          2.199e-05   2.248e-05    -4.658    -4.648     0.010     (0)  
   NaCO3-          5.401e-09   4.235e-09    -8.268    -8.373    -0.106     (0)  
   NaOH            5.911e-13   6.042e-13   -12.228   -12.219     0.010     (0)  
O(0)          0.000e+00
   O2              0.000e+00   0.000e+00   -66.500   -66.491     0.010     (0)  

------------------------------Saturation indices-------------------------------

	Phase               SI   log IAP   log K(298 K,   1 atm)

	Aragonite        -0.14     -8.48   -8.34  CaCO3
	Calcite           0.00     -8.48   -8.48  CaCO3
	CH4(g)          -11.97    -14.81   -2.84  CH4
	CO2(g)            1.46     -0.01   -1.47  CO2
	H2(g)            -9.76     33.24   43.00  H2
	O2(g)           -63.60    -66.49   -2.89  O2


------------------
End of simulation.
------------------

-------------------------------------
Reading input data for simulation 22.
-------------------------------------

------------------------------
End of Run after 0.01 Seconds.
------------------------------

