   Input file: phinp.dat
  Output file: phinp.out
Database file: phreeqc.dat

------------------
Reading data base.
------------------

	SOLUTION_MASTER_SPECIES
	SOLUTION_SPECIES
	PHASES
	EXCHANGE_MASTER_SPECIES
	EXCHANGE_SPECIES
	SURFACE_MASTER_SPECIES
	SURFACE_SPECIES
	RATES
------------------------------------
Reading input data for simulation 1.
------------------------------------

	SOLUTION 1 #New Version 
	units mol/kgw 
	temp 25.000000 
	C(4)       1.000000000000e-10     # comp 
	Ca       1.000000000000e-10     # comp 
	Mg       1.000000000000e-03     # comp 
	Cl       2.000000000000e-03     # comp 
	pH       6.945476486739e+00 charge        # comp 
	pe       -3.617389227057e+00       # comp 
	KINETICS 1
	Calcite  # comp
	m 0.000000000000e+00
	steps 1.000000000000e+02 in 1 steps
	Dolomite(dis)  # comp
	m 0.000000000000e+00
	RATES 1
	Calcite
	  start
	rem kmech = k25*exp(-Eact/R*(1/T-1/298.15))*Product([Ci]^nyi)
	10  R = 8.314472
	11  deltaT = 1/TK - 1/298.15
	12  e = 2.7183
	rem acidic mechanism
	13  Ea = 14400
	14  logK25 = -0.299988938
	15  ny = 1.0
	rem 16  mech_a = (10^logK25) * (e^(-Ea/R*deltaT)) * ACT("H+")^ny
	16  mech_a = (10^logK25) * ACT("H+")^ny
	rem base term (neutral mechanism)
	23  Ea = 23500
	24  logK25 = -5.709965389
	rem 26  mech_b = (10^logK25) * (e^(-Ea/R*deltaT)) 
	26  mech_b = (10^logK25) 
	30  rate = mech_a + mech_b
	40  teta = 1 
	41  eta = 1
	42  Area = .01
	70  rate = Area * rate * (1 - SR("Calcite")^teta)^eta
	80  moles = rate * time
	100 save moles
	  end
	Dolomite(dis)
	  start
	rem kmech = k25*exp(-Eact/R*(1/T-1/298.15))*Product([Ci]^nyi)
	10  R = 8.314472
	11  deltaT = 1/TK - 1/298.15
	12  e = 2.7183
	rem acidic mechanism
	13  Ea = 36100
	14  logK25 = -3.19
	15  ny = 0.5
	rem 16  mech_a = (10^logK25) * (e^(-Ea/R*deltaT)) * ACT("H+")^ny
	16  mech_a = (10^logK25) * ACT("H+")^ny
	rem base term (neutral mechanism)
	23  Ea = 52200
	24  logK25 = -7.53
	rem 26  mech_b = (10^logK25) * (e^(-Ea/R*deltaT)) 
	26  mech_b = (10^logK25) 
	30  rate = mech_a + mech_b
	40  teta = 1 
	41  eta = 1
	42  Area = .001
	70  rate = Area * rate * (1 - SR("Dolomite(dis)")^teta)^eta
	80  moles = rate * time
	100 save moles
	  end
	PRINT
	 reset true
	 selected_output true
	SELECTED_OUTPUT
	file phout_sel.dat
	high_precision
	reset false
	USER_PUNCH
	heading  C(4) Ca Mg Cl pH  H+  pe  Calcite Dolomite(dis)
	 10 PUNCH  TOT("C(4)"), TOT("Ca"), TOT("Mg"), TOT("Cl"),
	 20 PUNCH  -LA("H+"),  MOL("H+"),   -LA("e-")
	 80 PUNCH  KIN("Calcite"), KIN("Dolomite(dis)"),
	END
-------------------------------------------
Beginning of initial solution calculations.
-------------------------------------------

Initial solution 1.	

-----------------------------Solution composition------------------------------

	Elements           Molality       Moles

	C(4)              1.000e-10   1.000e-10
	Ca                1.000e-10   1.000e-10
	Cl                2.000e-03   2.000e-03
	Mg                1.000e-03   1.000e-03

----------------------------Description of solution----------------------------

                                       pH  =   6.945      Charge balance
                                       pe  =  -3.617    
                        Activity of water  =   1.000
                           Ionic strength  =   3.000e-03
                       Mass of water (kg)  =   1.000e+00
                 Total alkalinity (eq/kg)  =   2.000e-10
                       Total CO2 (mol/kg)  =   1.000e-10
                      Temperature (deg C)  =  25.00
                  Electrical balance (eq)  =   3.324e-16
 Percent error, 100*(Cat-|An|)/(Cat+|An|)  =   0.00
                               Iterations  =   4
                                  Total H  = 1.110124e+02
                                  Total O  = 5.550622e+01

----------------------------Distribution of species----------------------------

                                               Log       Log       Log    mole V
   Species          Molality    Activity  Molality  Activity     Gamma   cm3/mol

   H+              1.204e-07   1.134e-07    -6.919    -6.945    -0.026      0.00
   OH-             9.375e-08   8.829e-08    -7.028    -7.054    -0.026     (0)  
   H2O             5.551e+01   9.999e-01     1.744    -0.000     0.000     18.07
C(4)          1.000e-10
   HCO3-           8.000e-11   7.535e-11   -10.097   -10.123    -0.026     (0)  
   CO2             1.920e-11   1.921e-11   -10.717   -10.716     0.000     (0)  
   MgHCO3+         7.366e-13   6.937e-13   -12.133   -12.159    -0.026     (0)  
   CO3-2           3.961e-14   3.117e-14   -13.402   -13.506    -0.104     (0)  
   MgCO3           2.339e-14   2.340e-14   -13.631   -13.631     0.000     (0)  
   CaHCO3+         8.032e-20   7.565e-20   -19.095   -19.121    -0.026     (0)  
   CaCO3           4.117e-21   4.120e-21   -20.385   -20.385     0.000     (0)  
Ca            1.000e-10
   Ca+2            1.000e-10   7.869e-11   -10.000   -10.104    -0.104     (0)  
   CaOH+           1.223e-16   1.152e-16   -15.913   -15.939    -0.026     (0)  
   CaHCO3+         8.032e-20   7.565e-20   -19.095   -19.121    -0.026     (0)  
   CaCO3           4.117e-21   4.120e-21   -20.385   -20.385     0.000     (0)  
Cl            2.000e-03
   Cl-             2.000e-03   1.884e-03    -2.699    -2.725    -0.026     (0)  
H(0)          3.123e-10
   H2              1.561e-10   1.563e-10    -9.806    -9.806     0.000     (0)  
Mg            1.000e-03
   Mg+2            1.000e-03   7.868e-04    -3.000    -3.104    -0.104     (0)  
   MgOH+           2.675e-08   2.520e-08    -7.573    -7.599    -0.026     (0)  
   MgHCO3+         7.366e-13   6.937e-13   -12.133   -12.159    -0.026     (0)  
   MgCO3           2.339e-14   2.340e-14   -13.631   -13.631     0.000     (0)  
O(0)          0.000e+00
   O2              0.000e+00   0.000e+00   -72.768   -72.768     0.000     (0)  

------------------------------Saturation indices-------------------------------

	Phase               SI   log IAP   log K(298 K,   1 atm)

	Aragonite       -15.27    -23.61   -8.34  CaCO3
	Calcite         -15.13    -23.61   -8.48  CaCO3
	CO2(g)           -9.25    -10.72   -1.47  CO2
	Dolomite(dis)   -23.13    -40.22  -17.09  CaMg(CO3)2
	H2(g)            -6.61     36.38   43.00  H2
	O2(g)           -69.88    -72.77   -2.89  O2


-----------------------------------------
Beginning of batch-reaction calculations.
-----------------------------------------

Reaction step 1.

Using solution 1.	
Using kinetics 1.	

Kinetics 1.	

	Time step: 100 seconds

	Rate name       Delta Moles Total Moles   Reactant        Coefficient

	Calcite          -0.000e+00   0.000e+00   Calcite                   1
	Dolomite(dis)    -0.000e+00   0.000e+00   Dolomite(dis)             1

-----------------------------Solution composition------------------------------

	Elements           Molality       Moles

	C                 1.000e-10   1.000e-10
	Ca                1.000e-10   1.000e-10
	Cl                2.000e-03   2.000e-03
	Mg                1.000e-03   1.000e-03

----------------------------Description of solution----------------------------

                                       pH  =   6.945      Charge balance
                                       pe  =  -3.617      Adjusted to redox equilibrium
                        Activity of water  =   1.000
                           Ionic strength  =   3.000e-03
                       Mass of water (kg)  =   1.000e+00
                 Total alkalinity (eq/kg)  =   2.000e-10
                       Total CO2 (mol/kg)  =   9.989e-11
                      Temperature (deg C)  =  25.00
                  Electrical balance (eq)  =   3.301e-16
 Percent error, 100*(Cat-|An|)/(Cat+|An|)  =   0.00
                               Iterations  =   2
                                  Total H  = 1.110124e+02
                                  Total O  = 5.550622e+01

----------------------------Distribution of species----------------------------

                                               Log       Log       Log    mole V
   Species          Molality    Activity  Molality  Activity     Gamma   cm3/mol

   H+              1.204e-07   1.134e-07    -6.919    -6.945    -0.026      0.00
   OH-             9.375e-08   8.829e-08    -7.028    -7.054    -0.026     (0)  
   H2O             5.551e+01   9.999e-01     1.744    -0.000     0.000     18.07
C(-4)         1.106e-13
   CH4             1.106e-13   1.106e-13   -12.956   -12.956     0.000     (0)  
C(4)          9.989e-11
   HCO3-           7.992e-11   7.527e-11   -10.097   -10.123    -0.026     (0)  
   CO2             1.917e-11   1.919e-11   -10.717   -10.717     0.000     (0)  
   MgHCO3+         7.358e-13   6.930e-13   -12.133   -12.159    -0.026     (0)  
   CO3-2           3.957e-14   3.113e-14   -13.403   -13.507    -0.104     (0)  
   MgCO3           2.336e-14   2.338e-14   -13.632   -13.631     0.000     (0)  
   CaHCO3+         8.023e-20   7.556e-20   -19.096   -19.122    -0.026     (0)  
   CaCO3           4.113e-21   4.115e-21   -20.386   -20.386     0.000     (0)  
Ca            1.000e-10
   Ca+2            1.000e-10   7.869e-11   -10.000   -10.104    -0.104     (0)  
   CaOH+           1.223e-16   1.152e-16   -15.913   -15.939    -0.026     (0)  
   CaHCO3+         8.023e-20   7.556e-20   -19.096   -19.122    -0.026     (0)  
   CaCO3           4.113e-21   4.115e-21   -20.386   -20.386     0.000     (0)  
Cl            2.000e-03
   Cl-             2.000e-03   1.884e-03    -2.699    -2.725    -0.026     (0)  
H(0)          3.114e-10
   H2              1.557e-10   1.558e-10    -9.808    -9.807     0.000     (0)  
Mg            1.000e-03
   Mg+2            1.000e-03   7.868e-04    -3.000    -3.104    -0.104     (0)  
   MgOH+           2.675e-08   2.520e-08    -7.573    -7.599    -0.026     (0)  
   MgHCO3+         7.358e-13   6.930e-13   -12.133   -12.159    -0.026     (0)  
   MgCO3           2.336e-14   2.338e-14   -13.632   -13.631     0.000     (0)  
O(0)          0.000e+00
   O2              0.000e+00   0.000e+00   -72.766   -72.765     0.000     (0)  

------------------------------Saturation indices-------------------------------

	Phase               SI   log IAP   log K(298 K,   1 atm)

	Aragonite       -15.27    -23.61   -8.34  CaCO3
	Calcite         -15.13    -23.61   -8.48  CaCO3
	CH4(g)          -10.11    -12.96   -2.84  CH4
	CO2(g)           -9.25    -10.72   -1.47  CO2
	Dolomite(dis)   -23.13    -40.22  -17.09  CaMg(CO3)2
	H2(g)            -6.62     36.38   43.00  H2
	O2(g)           -69.87    -72.77   -2.89  O2


------------------
End of simulation.
------------------

------------------------------------
Reading input data for simulation 2.
------------------------------------

	SOLUTION 2 #New Version 
	units mol/kgw 
	temp 25.000000 
	C(4)       7.450469878893e-09     # comp 
	Ca       7.450714160826e-09     # comp 
	Mg       9.999959589096e-04     # comp 
	Cl       1.999991911339e-03     # comp 
	pH       6.961852381286e+00 charge        # comp 
	pe       -3.336502592934e+00       # comp 
	KINETICS 2
	Calcite  # comp
	m 0.000000000000e+00
	steps 1.000000000000e+02 in 1 steps
	Dolomite(dis)  # comp
	m 0.000000000000e+00
	RATES 2
	Calcite
	  start
	rem kmech = k25*exp(-Eact/R*(1/T-1/298.15))*Product([Ci]^nyi)
	10  R = 8.314472
	11  deltaT = 1/TK - 1/298.15
	12  e = 2.7183
	rem acidic mechanism
	13  Ea = 14400
	14  logK25 = -0.299988938
	15  ny = 1.0
	rem 16  mech_a = (10^logK25) * (e^(-Ea/R*deltaT)) * ACT("H+")^ny
	16  mech_a = (10^logK25) * ACT("H+")^ny
	rem base term (neutral mechanism)
	23  Ea = 23500
	24  logK25 = -5.709965389
	rem 26  mech_b = (10^logK25) * (e^(-Ea/R*deltaT)) 
	26  mech_b = (10^logK25) 
	30  rate = mech_a + mech_b
	40  teta = 1 
	41  eta = 1
	42  Area = .01
	70  rate = Area * rate * (1 - SR("Calcite")^teta)^eta
	80  moles = rate * time
	100 save moles
	  end
	Dolomite(dis)
	  start
	rem kmech = k25*exp(-Eact/R*(1/T-1/298.15))*Product([Ci]^nyi)
	10  R = 8.314472
	11  deltaT = 1/TK - 1/298.15
	12  e = 2.7183
	rem acidic mechanism
	13  Ea = 36100
	14  logK25 = -3.19
	15  ny = 0.5
	rem 16  mech_a = (10^logK25) * (e^(-Ea/R*deltaT)) * ACT("H+")^ny
	16  mech_a = (10^logK25) * ACT("H+")^ny
	rem base term (neutral mechanism)
	23  Ea = 52200
	24  logK25 = -7.53
	rem 26  mech_b = (10^logK25) * (e^(-Ea/R*deltaT)) 
	26  mech_b = (10^logK25) 
	30  rate = mech_a + mech_b
	40  teta = 1 
	41  eta = 1
	42  Area = .001
	70  rate = Area * rate * (1 - SR("Dolomite(dis)")^teta)^eta
	80  moles = rate * time
	100 save moles
	  end
	END
-------------------------------------------
Beginning of initial solution calculations.
-------------------------------------------

Initial solution 2.	

-----------------------------Solution composition------------------------------

	Elements           Molality       Moles

	C(4)              7.450e-09   7.450e-09
	Ca                7.451e-09   7.451e-09
	Cl                2.000e-03   2.000e-03
	Mg                1.000e-03   1.000e-03

----------------------------Description of solution----------------------------

                                       pH  =   6.961      Charge balance
                                       pe  =  -3.337    
                        Activity of water  =   1.000
                           Ionic strength  =   3.000e-03
                       Mass of water (kg)  =   1.000e+00
                 Total alkalinity (eq/kg)  =   1.491e-08
                       Total CO2 (mol/kg)  =   7.450e-09
                      Temperature (deg C)  =  25.00
                  Electrical balance (eq)  =   3.321e-16
 Percent error, 100*(Cat-|An|)/(Cat+|An|)  =   0.00
                               Iterations  =   4
                                  Total H  = 1.110124e+02
                                  Total O  = 5.550622e+01

----------------------------Distribution of species----------------------------

                                               Log       Log       Log    mole V
   Species          Molality    Activity  Molality  Activity     Gamma   cm3/mol

   H+              1.161e-07   1.093e-07    -6.935    -6.961    -0.026      0.00
   OH-             9.720e-08   9.155e-08    -7.012    -7.038    -0.026     (0)  
   H2O             5.551e+01   9.999e-01     1.744    -0.000     0.000     18.07
C(4)          7.450e-09
   HCO3-           6.002e-09   5.652e-09    -8.222    -8.248    -0.026     (0)  
   CO2             1.389e-09   1.390e-09    -8.857    -8.857     0.000     (0)  
   MgHCO3+         5.525e-11   5.204e-11   -10.258   -10.284    -0.026     (0)  
   CO3-2           3.081e-12   2.424e-12   -11.511   -11.615    -0.104     (0)  
   MgCO3           1.819e-12   1.820e-12   -11.740   -11.740     0.000     (0)  
   CaHCO3+         4.489e-16   4.228e-16   -15.348   -15.374    -0.026     (0)  
   CaCO3           2.386e-17   2.388e-17   -16.622   -16.622     0.000     (0)  
Ca            7.451e-09
   Ca+2            7.451e-09   5.863e-09    -8.128    -8.232    -0.104     (0)  
   CaOH+           9.447e-15   8.898e-15   -14.025   -14.051    -0.026     (0)  
   CaHCO3+         4.489e-16   4.228e-16   -15.348   -15.374    -0.026     (0)  
   CaCO3           2.386e-17   2.388e-17   -16.622   -16.622     0.000     (0)  
Cl            2.000e-03
   Cl-             2.000e-03   1.884e-03    -2.699    -2.725    -0.026     (0)  
H(0)          7.968e-11
   H2              3.984e-11   3.987e-11   -10.400   -10.399     0.000     (0)  
Mg            1.000e-03
   Mg+2            1.000e-03   7.868e-04    -3.000    -3.104    -0.104     (0)  
   MgOH+           2.774e-08   2.613e-08    -7.557    -7.583    -0.026     (0)  
   MgHCO3+         5.525e-11   5.204e-11   -10.258   -10.284    -0.026     (0)  
   MgCO3           1.819e-12   1.820e-12   -11.740   -11.740     0.000     (0)  
O(0)          0.000e+00
   O2              0.000e+00   0.000e+00   -71.582   -71.581     0.000     (0)  

------------------------------Saturation indices-------------------------------

	Phase               SI   log IAP   log K(298 K,   1 atm)

	Aragonite       -11.51    -19.85   -8.34  CaCO3
	Calcite         -11.37    -19.85   -8.48  CaCO3
	CO2(g)           -7.39     -8.86   -1.47  CO2
	Dolomite(dis)   -17.48    -34.57  -17.09  CaMg(CO3)2
	H2(g)            -7.21     35.79   43.00  H2
	O2(g)           -68.69    -71.58   -2.89  O2


-----------------------------------------
Beginning of batch-reaction calculations.
-----------------------------------------

Reaction step 1.

Using solution 2.	
Using kinetics 2.	

Kinetics 2.	

	Time step: 100 seconds

	Rate name       Delta Moles Total Moles   Reactant        Coefficient

	Calcite          -0.000e+00   0.000e+00   Calcite                   1
	Dolomite(dis)    -0.000e+00   0.000e+00   Dolomite(dis)             1

-----------------------------Solution composition------------------------------

	Elements           Molality       Moles

	C                 7.450e-09   7.450e-09
	Ca                7.451e-09   7.451e-09
	Cl                2.000e-03   2.000e-03
	Mg                1.000e-03   1.000e-03

----------------------------Description of solution----------------------------

                                       pH  =   6.961      Charge balance
                                       pe  =  -3.336      Adjusted to redox equilibrium
                        Activity of water  =   1.000
                           Ionic strength  =   3.000e-03
                       Mass of water (kg)  =   1.000e+00
                 Total alkalinity (eq/kg)  =   1.491e-08
                       Total CO2 (mol/kg)  =   7.450e-09
                      Temperature (deg C)  =  25.00
                  Electrical balance (eq)  =   3.545e-16
 Percent error, 100*(Cat-|An|)/(Cat+|An|)  =   0.00
                               Iterations  =   1
                                  Total H  = 1.110124e+02
                                  Total O  = 5.550622e+01

----------------------------Distribution of species----------------------------

                                               Log       Log       Log    mole V
   Species          Molality    Activity  Molality  Activity     Gamma   cm3/mol

   H+              1.161e-07   1.093e-07    -6.935    -6.961    -0.026      0.00
   OH-             9.720e-08   9.155e-08    -7.012    -7.038    -0.026     (0)  
   H2O             5.551e+01   9.999e-01     1.744    -0.000     0.000     18.07
C(-4)         3.382e-14
   CH4             3.382e-14   3.384e-14   -13.471   -13.471     0.000     (0)  
C(4)          7.450e-09
   HCO3-           6.002e-09   5.652e-09    -8.222    -8.248    -0.026     (0)  
   CO2             1.389e-09   1.390e-09    -8.857    -8.857     0.000     (0)  
   MgHCO3+         5.525e-11   5.204e-11   -10.258   -10.284    -0.026     (0)  
   CO3-2           3.081e-12   2.424e-12   -11.511   -11.615    -0.104     (0)  
   MgCO3           1.819e-12   1.820e-12   -11.740   -11.740     0.000     (0)  
   CaHCO3+         4.489e-16   4.228e-16   -15.348   -15.374    -0.026     (0)  
   CaCO3           2.386e-17   2.388e-17   -16.622   -16.622     0.000     (0)  
Ca            7.451e-09
   Ca+2            7.451e-09   5.863e-09    -8.128    -8.232    -0.104     (0)  
   CaOH+           9.447e-15   8.898e-15   -14.025   -14.051    -0.026     (0)  
   CaHCO3+         4.489e-16   4.228e-16   -15.348   -15.374    -0.026     (0)  
   CaCO3           2.386e-17   2.388e-17   -16.622   -16.622     0.000     (0)  
Cl            2.000e-03
   Cl-             2.000e-03   1.884e-03    -2.699    -2.725    -0.026     (0)  
H(0)          7.939e-11
   H2              3.970e-11   3.972e-11   -10.401   -10.401     0.000     (0)  
Mg            1.000e-03
   Mg+2            1.000e-03   7.868e-04    -3.000    -3.104    -0.104     (0)  
   MgOH+           2.774e-08   2.613e-08    -7.557    -7.583    -0.026     (0)  
   MgHCO3+         5.525e-11   5.204e-11   -10.258   -10.284    -0.026     (0)  
   MgCO3           1.819e-12   1.820e-12   -11.740   -11.740     0.000     (0)  
O(0)          0.000e+00
   O2              0.000e+00   0.000e+00   -71.578   -71.578     0.000     (0)  

------------------------------Saturation indices-------------------------------

	Phase               SI   log IAP   log K(298 K,   1 atm)

	Aragonite       -11.51    -19.85   -8.34  CaCO3
	Calcite         -11.37    -19.85   -8.48  CaCO3
	CH4(g)          -10.63    -13.47   -2.84  CH4
	CO2(g)           -7.39     -8.86   -1.47  CO2
	Dolomite(dis)   -17.48    -34.57  -17.09  CaMg(CO3)2
	H2(g)            -7.21     35.79   43.00  H2
	O2(g)           -68.69    -71.58   -2.89  O2


------------------
End of simulation.
------------------

------------------------------------
Reading input data for simulation 3.
------------------------------------

	SOLUTION 3 #New Version 
	units mol/kgw 
	temp 25.000000 
	C(4)       2.135874018524e-08     # comp 
	Ca       2.135824728304e-08     # comp 
	Mg       9.999883390763e-04     # comp 
	Cl       1.999976657829e-03     # comp 
	pH       6.992334813307e+00 charge        # comp 
	pe       -3.367888832125e+00       # comp 
	KINETICS 3
	Calcite  # comp
	m 0.000000000000e+00
	steps 1.000000000000e+02 in 1 steps
	Dolomite(dis)  # comp
	m 0.000000000000e+00
	RATES 3
	Calcite
	  start
	rem kmech = k25*exp(-Eact/R*(1/T-1/298.15))*Product([Ci]^nyi)
	10  R = 8.314472
	11  deltaT = 1/TK - 1/298.15
	12  e = 2.7183
	rem acidic mechanism
	13  Ea = 14400
	14  logK25 = -0.299988938
	15  ny = 1.0
	rem 16  mech_a = (10^logK25) * (e^(-Ea/R*deltaT)) * ACT("H+")^ny
	16  mech_a = (10^logK25) * ACT("H+")^ny
	rem base term (neutral mechanism)
	23  Ea = 23500
	24  logK25 = -5.709965389
	rem 26  mech_b = (10^logK25) * (e^(-Ea/R*deltaT)) 
	26  mech_b = (10^logK25) 
	30  rate = mech_a + mech_b
	40  teta = 1 
	41  eta = 1
	42  Area = .01
	70  rate = Area * rate * (1 - SR("Calcite")^teta)^eta
	80  moles = rate * time
	100 save moles
	  end
	Dolomite(dis)
	  start
	rem kmech = k25*exp(-Eact/R*(1/T-1/298.15))*Product([Ci]^nyi)
	10  R = 8.314472
	11  deltaT = 1/TK - 1/298.15
	12  e = 2.7183
	rem acidic mechanism
	13  Ea = 36100
	14  logK25 = -3.19
	15  ny = 0.5
	rem 16  mech_a = (10^logK25) * (e^(-Ea/R*deltaT)) * ACT("H+")^ny
	16  mech_a = (10^logK25) * ACT("H+")^ny
	rem base term (neutral mechanism)
	23  Ea = 52200
	24  logK25 = -7.53
	rem 26  mech_b = (10^logK25) * (e^(-Ea/R*deltaT)) 
	26  mech_b = (10^logK25) 
	30  rate = mech_a + mech_b
	40  teta = 1 
	41  eta = 1
	42  Area = .001
	70  rate = Area * rate * (1 - SR("Dolomite(dis)")^teta)^eta
	80  moles = rate * time
	100 save moles
	  end
	END
-------------------------------------------
Beginning of initial solution calculations.
-------------------------------------------

Initial solution 3.	

-----------------------------Solution composition------------------------------

	Elements           Molality       Moles

	C(4)              2.136e-08   2.136e-08
	Ca                2.136e-08   2.136e-08
	Cl                2.000e-03   2.000e-03
	Mg                1.000e-03   1.000e-03

----------------------------Description of solution----------------------------

                                       pH  =   6.990      Charge balance
                                       pe  =  -3.368    
                        Activity of water  =   1.000
                           Ionic strength  =   3.000e-03
                       Mass of water (kg)  =   1.000e+00
                 Total alkalinity (eq/kg)  =   4.274e-08
                       Total CO2 (mol/kg)  =   2.136e-08
                      Temperature (deg C)  =  25.00
                  Electrical balance (eq)  =   3.338e-16
 Percent error, 100*(Cat-|An|)/(Cat+|An|)  =   0.00
                               Iterations  =   4
                                  Total H  = 1.110124e+02
                                  Total O  = 5.550622e+01

----------------------------Distribution of species----------------------------

                                               Log       Log       Log    mole V
   Species          Molality    Activity  Molality  Activity     Gamma   cm3/mol

   H+              1.085e-07   1.022e-07    -6.964    -6.990    -0.026      0.00
   OH-             1.040e-07   9.793e-08    -6.983    -7.009    -0.026     (0)  
   H2O             5.551e+01   9.999e-01     1.744    -0.000     0.000     18.07
C(4)          2.136e-08
   HCO3-           1.742e-08   1.640e-08    -7.759    -7.785    -0.026     (0)  
   CO2             3.767e-09   3.770e-09    -8.424    -8.424     0.000     (0)  
   MgHCO3+         1.603e-10   1.510e-10    -9.795    -9.821    -0.026     (0)  
   CO3-2           9.564e-12   7.526e-12   -11.019   -11.123    -0.104     (0)  
   MgCO3           5.647e-12   5.651e-12   -11.248   -11.248     0.000     (0)  
   CaHCO3+         3.734e-15   3.517e-15   -14.428   -14.454    -0.026     (0)  
   CaCO3           2.123e-16   2.125e-16   -15.673   -15.673     0.000     (0)  
Ca            2.136e-08
   Ca+2            2.136e-08   1.681e-08    -7.670    -7.775    -0.104     (0)  
   CaOH+           2.897e-14   2.729e-14   -13.538   -13.564    -0.026     (0)  
   CaHCO3+         3.734e-15   3.517e-15   -14.428   -14.454    -0.026     (0)  
   CaCO3           2.123e-16   2.125e-16   -15.673   -15.673     0.000     (0)  
Cl            2.000e-03
   Cl-             2.000e-03   1.884e-03    -2.699    -2.725    -0.026     (0)  
H(0)          8.045e-11
   H2              4.023e-11   4.025e-11   -10.396   -10.395     0.000     (0)  
Mg            1.000e-03
   Mg+2            1.000e-03   7.868e-04    -3.000    -3.104    -0.104     (0)  
   MgOH+           2.967e-08   2.795e-08    -7.528    -7.554    -0.026     (0)  
   MgHCO3+         1.603e-10   1.510e-10    -9.795    -9.821    -0.026     (0)  
   MgCO3           5.647e-12   5.651e-12   -11.248   -11.248     0.000     (0)  
O(0)          0.000e+00
   O2              0.000e+00   0.000e+00   -71.590   -71.590     0.000     (0)  

------------------------------Saturation indices-------------------------------

	Phase               SI   log IAP   log K(298 K,   1 atm)

	Aragonite       -10.56    -18.90   -8.34  CaCO3
	Calcite         -10.42    -18.90   -8.48  CaCO3
	CO2(g)           -6.96     -8.42   -1.47  CO2
	Dolomite(dis)   -16.04    -33.13  -17.09  CaMg(CO3)2
	H2(g)            -7.20     35.79   43.00  H2
	O2(g)           -68.70    -71.59   -2.89  O2


-----------------------------------------
Beginning of batch-reaction calculations.
-----------------------------------------

Reaction step 1.

Using solution 3.	
Using kinetics 3.	

Kinetics 3.	

	Time step: 100 seconds

	Rate name       Delta Moles Total Moles   Reactant        Coefficient

	Calcite          -0.000e+00   0.000e+00   Calcite                   1
	Dolomite(dis)    -0.000e+00   0.000e+00   Dolomite(dis)             1

-----------------------------Solution composition------------------------------

	Elements           Molality       Moles

	C                 2.136e-08   2.136e-08
	Ca                2.136e-08   2.136e-08
	Cl                2.000e-03   2.000e-03
	Mg                1.000e-03   1.000e-03

----------------------------Description of solution----------------------------

                                       pH  =   6.990      Charge balance
                                       pe  =  -3.366      Adjusted to redox equilibrium
                        Activity of water  =   1.000
                           Ionic strength  =   3.000e-03
                       Mass of water (kg)  =   1.000e+00
                 Total alkalinity (eq/kg)  =   4.274e-08
                       Total CO2 (mol/kg)  =   2.136e-08
                      Temperature (deg C)  =  25.00
                  Electrical balance (eq)  =   3.335e-16
 Percent error, 100*(Cat-|An|)/(Cat+|An|)  =   0.00
                               Iterations  =   2
                                  Total H  = 1.110124e+02
                                  Total O  = 5.550622e+01

----------------------------Distribution of species----------------------------

                                               Log       Log       Log    mole V
   Species          Molality    Activity  Molality  Activity     Gamma   cm3/mol

   H+              1.085e-07   1.022e-07    -6.964    -6.990    -0.026      0.00
   OH-             1.040e-07   9.793e-08    -6.983    -7.009    -0.026     (0)  
   H2O             5.551e+01   9.999e-01     1.744    -0.000     0.000     18.07
C(-4)         9.312e-14
   CH4             9.312e-14   9.318e-14   -13.031   -13.031     0.000     (0)  
C(4)          2.136e-08
   HCO3-           1.742e-08   1.640e-08    -7.759    -7.785    -0.026     (0)  
   CO2             3.767e-09   3.770e-09    -8.424    -8.424     0.000     (0)  
   MgHCO3+         1.603e-10   1.510e-10    -9.795    -9.821    -0.026     (0)  
   CO3-2           9.564e-12   7.526e-12   -11.019   -11.123    -0.104     (0)  
   MgCO3           5.647e-12   5.651e-12   -11.248   -11.248     0.000     (0)  
   CaHCO3+         3.734e-15   3.517e-15   -14.428   -14.454    -0.026     (0)  
   CaCO3           2.123e-16   2.125e-16   -15.673   -15.673     0.000     (0)  
Ca            2.136e-08
   Ca+2            2.136e-08   1.681e-08    -7.670    -7.775    -0.104     (0)  
   CaOH+           2.897e-14   2.729e-14   -13.538   -13.564    -0.026     (0)  
   CaHCO3+         3.734e-15   3.517e-15   -14.428   -14.454    -0.026     (0)  
   CaCO3           2.123e-16   2.125e-16   -15.673   -15.673     0.000     (0)  
Cl            2.000e-03
   Cl-             2.000e-03   1.884e-03    -2.699    -2.725    -0.026     (0)  
H(0)          7.969e-11
   H2              3.985e-11   3.987e-11   -10.400   -10.399     0.000     (0)  
Mg            1.000e-03
   Mg+2            1.000e-03   7.868e-04    -3.000    -3.104    -0.104     (0)  
   MgOH+           2.967e-08   2.795e-08    -7.528    -7.554    -0.026     (0)  
   MgHCO3+         1.603e-10   1.510e-10    -9.795    -9.821    -0.026     (0)  
   MgCO3           5.647e-12   5.651e-12   -11.248   -11.248     0.000     (0)  
O(0)          0.000e+00
   O2              0.000e+00   0.000e+00   -71.582   -71.581     0.000     (0)  

------------------------------Saturation indices-------------------------------

	Phase               SI   log IAP   log K(298 K,   1 atm)

	Aragonite       -10.56    -18.90   -8.34  CaCO3
	Calcite         -10.42    -18.90   -8.48  CaCO3
	CH4(g)          -10.19    -13.03   -2.84  CH4
	CO2(g)           -6.96     -8.42   -1.47  CO2
	Dolomite(dis)   -16.04    -33.13  -17.09  CaMg(CO3)2
	H2(g)            -7.21     35.79   43.00  H2
	O2(g)           -68.69    -71.58   -2.89  O2


------------------
End of simulation.
------------------

------------------------------------
Reading input data for simulation 4.
------------------------------------

	SOLUTION 4 #New Version 
	units mol/kgw 
	temp 25.000000 
	C(4)       4.585702412733e-08     # comp 
	Ca       4.585229119232e-08     # comp 
	Mg       9.999749939940e-04     # comp 
	Cl       1.999949938473e-03     # comp 
	pH       7.044217989156e+00 charge        # comp 
	pe       -3.422204646009e+00       # comp 
	KINETICS 4
	Calcite  # comp
	m 0.000000000000e+00
	steps 1.000000000000e+02 in 1 steps
	Dolomite(dis)  # comp
	m 0.000000000000e+00
	RATES 4
	Calcite
	  start
	rem kmech = k25*exp(-Eact/R*(1/T-1/298.15))*Product([Ci]^nyi)
	10  R = 8.314472
	11  deltaT = 1/TK - 1/298.15
	12  e = 2.7183
	rem acidic mechanism
	13  Ea = 14400
	14  logK25 = -0.299988938
	15  ny = 1.0
	rem 16  mech_a = (10^logK25) * (e^(-Ea/R*deltaT)) * ACT("H+")^ny
	16  mech_a = (10^logK25) * ACT("H+")^ny
	rem base term (neutral mechanism)
	23  Ea = 23500
	24  logK25 = -5.709965389
	rem 26  mech_b = (10^logK25) * (e^(-Ea/R*deltaT)) 
	26  mech_b = (10^logK25) 
	30  rate = mech_a + mech_b
	40  teta = 1 
	41  eta = 1
	42  Area = .01
	70  rate = Area * rate * (1 - SR("Calcite")^teta)^eta
	80  moles = rate * time
	100 save moles
	  end
	Dolomite(dis)
	  start
	rem kmech = k25*exp(-Eact/R*(1/T-1/298.15))*Product([Ci]^nyi)
	10  R = 8.314472
	11  deltaT = 1/TK - 1/298.15
	12  e = 2.7183
	rem acidic mechanism
	13  Ea = 36100
	14  logK25 = -3.19
	15  ny = 0.5
	rem 16  mech_a = (10^logK25) * (e^(-Ea/R*deltaT)) * ACT("H+")^ny
	16  mech_a = (10^logK25) * ACT("H+")^ny
	rem base term (neutral mechanism)
	23  Ea = 52200
	24  logK25 = -7.53
	rem 26  mech_b = (10^logK25) * (e^(-Ea/R*deltaT)) 
	26  mech_b = (10^logK25) 
	30  rate = mech_a + mech_b
	40  teta = 1 
	41  eta = 1
	42  Area = .001
	70  rate = Area * rate * (1 - SR("Dolomite(dis)")^teta)^eta
	80  moles = rate * time
	100 save moles
	  end
	END
-------------------------------------------
Beginning of initial solution calculations.
-------------------------------------------

Initial solution 4.	

-----------------------------Solution composition------------------------------

	Elements           Molality       Moles

	C(4)              4.586e-08   4.586e-08
	Ca                4.585e-08   4.585e-08
	Cl                2.000e-03   2.000e-03
	Mg                1.000e-03   1.000e-03

----------------------------Description of solution----------------------------

                                       pH  =   7.040      Charge balance
                                       pe  =  -3.422    
                        Activity of water  =   1.000
                           Ionic strength  =   3.000e-03
                       Mass of water (kg)  =   1.000e+00
                 Total alkalinity (eq/kg)  =   9.175e-08
                       Total CO2 (mol/kg)  =   4.586e-08
                      Temperature (deg C)  =  25.00
                  Electrical balance (eq)  =   3.318e-16
 Percent error, 100*(Cat-|An|)/(Cat+|An|)  =   0.00
                               Iterations  =   4
                                  Total H  = 1.110124e+02
                                  Total O  = 5.550622e+01

----------------------------Distribution of species----------------------------

                                               Log       Log       Log    mole V
   Species          Molality    Activity  Molality  Activity     Gamma   cm3/mol

   OH-             1.167e-07   1.099e-07    -6.933    -6.959    -0.026     (0)  
   H+              9.674e-08   9.111e-08    -7.014    -7.040    -0.026      0.00
   H2O             5.551e+01   9.999e-01     1.744    -0.000     0.000     18.07
C(4)          4.586e-08
   HCO3-           3.812e-08   3.590e-08    -7.419    -7.445    -0.026     (0)  
   CO2             7.350e-09   7.355e-09    -8.134    -8.133     0.000     (0)  
   MgHCO3+         3.509e-10   3.305e-10    -9.455    -9.481    -0.026     (0)  
   CO3-2           2.349e-11   1.848e-11   -10.629   -10.733    -0.104     (0)  
   MgCO3           1.387e-11   1.387e-11   -10.858   -10.858     0.000     (0)  
   CaHCO3+         1.755e-14   1.653e-14   -13.756   -13.782    -0.026     (0)  
   CaCO3           1.119e-15   1.120e-15   -14.951   -14.951     0.000     (0)  
Ca            4.585e-08
   Ca+2            4.585e-08   3.608e-08    -7.339    -7.443    -0.104     (0)  
   CaOH+           6.977e-14   6.572e-14   -13.156   -13.182    -0.026     (0)  
   CaHCO3+         1.755e-14   1.653e-14   -13.756   -13.782    -0.026     (0)  
   CaCO3           1.119e-15   1.120e-15   -14.951   -14.951     0.000     (0)  
Cl            2.000e-03
   Cl-             2.000e-03   1.884e-03    -2.699    -2.725    -0.026     (0)  
H(0)          8.209e-11
   H2              4.104e-11   4.107e-11   -10.387   -10.386     0.000     (0)  
Mg            1.000e-03
   Mg+2            9.999e-04   7.868e-04    -3.000    -3.104    -0.104     (0)  
   MgOH+           3.329e-08   3.135e-08    -7.478    -7.504    -0.026     (0)  
   MgHCO3+         3.509e-10   3.305e-10    -9.455    -9.481    -0.026     (0)  
   MgCO3           1.387e-11   1.387e-11   -10.858   -10.858     0.000     (0)  
O(0)          0.000e+00
   O2              0.000e+00   0.000e+00   -71.607   -71.607     0.000     (0)  

------------------------------Saturation indices-------------------------------

	Phase               SI   log IAP   log K(298 K,   1 atm)

	Aragonite        -9.84    -18.18   -8.34  CaCO3
	Calcite          -9.70    -18.18   -8.48  CaCO3
	CO2(g)           -6.67     -8.13   -1.47  CO2
	Dolomite(dis)   -14.92    -32.01  -17.09  CaMg(CO3)2
	H2(g)            -7.19     35.80   43.00  H2
	O2(g)           -68.71    -71.61   -2.89  O2


-----------------------------------------
Beginning of batch-reaction calculations.
-----------------------------------------

Reaction step 1.

Using solution 4.	
Using kinetics 4.	

Kinetics 4.	

	Time step: 100 seconds

	Rate name       Delta Moles Total Moles   Reactant        Coefficient

	Calcite          -0.000e+00   0.000e+00   Calcite                   1
	Dolomite(dis)    -0.000e+00   0.000e+00   Dolomite(dis)             1

-----------------------------Solution composition------------------------------

	Elements           Molality       Moles

	C                 4.586e-08   4.586e-08
	Ca                4.585e-08   4.585e-08
	Cl                2.000e-03   2.000e-03
	Mg                1.000e-03   1.000e-03

----------------------------Description of solution----------------------------

                                       pH  =   7.040      Charge balance
                                       pe  =  -3.418      Adjusted to redox equilibrium
                        Activity of water  =   1.000
                           Ionic strength  =   3.000e-03
                       Mass of water (kg)  =   1.000e+00
                 Total alkalinity (eq/kg)  =   9.175e-08
                       Total CO2 (mol/kg)  =   4.586e-08
                      Temperature (deg C)  =  25.00
                  Electrical balance (eq)  =   3.318e-16
 Percent error, 100*(Cat-|An|)/(Cat+|An|)  =   0.00
                               Iterations  =   2
                                  Total H  = 1.110124e+02
                                  Total O  = 5.550622e+01

----------------------------Distribution of species----------------------------

                                               Log       Log       Log    mole V
   Species          Molality    Activity  Molality  Activity     Gamma   cm3/mol

   OH-             1.167e-07   1.099e-07    -6.933    -6.959    -0.026     (0)  
   H+              9.674e-08   9.111e-08    -7.014    -7.040    -0.026      0.00
   H2O             5.551e+01   9.999e-01     1.744    -0.000     0.000     18.07
C(-4)         1.898e-13
   CH4             1.898e-13   1.900e-13   -12.722   -12.721     0.000     (0)  
C(4)          4.586e-08
   HCO3-           3.812e-08   3.590e-08    -7.419    -7.445    -0.026     (0)  
   CO2             7.350e-09   7.355e-09    -8.134    -8.133     0.000     (0)  
   MgHCO3+         3.509e-10   3.305e-10    -9.455    -9.481    -0.026     (0)  
   CO3-2           2.349e-11   1.848e-11   -10.629   -10.733    -0.104     (0)  
   MgCO3           1.387e-11   1.387e-11   -10.858   -10.858     0.000     (0)  
   CaHCO3+         1.755e-14   1.653e-14   -13.756   -13.782    -0.026     (0)  
   CaCO3           1.119e-15   1.120e-15   -14.951   -14.951     0.000     (0)  
Ca            4.585e-08
   Ca+2            4.585e-08   3.608e-08    -7.339    -7.443    -0.104     (0)  
   CaOH+           6.977e-14   6.572e-14   -13.156   -13.182    -0.026     (0)  
   CaHCO3+         1.755e-14   1.653e-14   -13.756   -13.782    -0.026     (0)  
   CaCO3           1.119e-15   1.120e-15   -14.951   -14.951     0.000     (0)  
Cl            2.000e-03
   Cl-             2.000e-03   1.884e-03    -2.699    -2.725    -0.026     (0)  
H(0)          8.057e-11
   H2              4.028e-11   4.031e-11   -10.395   -10.395     0.000     (0)  
Mg            1.000e-03
   Mg+2            9.999e-04   7.868e-04    -3.000    -3.104    -0.104     (0)  
   MgOH+           3.329e-08   3.135e-08    -7.478    -7.504    -0.026     (0)  
   MgHCO3+         3.509e-10   3.305e-10    -9.455    -9.481    -0.026     (0)  
   MgCO3           1.387e-11   1.387e-11   -10.858   -10.858     0.000     (0)  
O(0)          0.000e+00
   O2              0.000e+00   0.000e+00   -71.591   -71.591     0.000     (0)  

------------------------------Saturation indices-------------------------------

	Phase               SI   log IAP   log K(298 K,   1 atm)

	Aragonite        -9.84    -18.18   -8.34  CaCO3
	Calcite          -9.70    -18.18   -8.48  CaCO3
	CH4(g)           -9.88    -12.72   -2.84  CH4
	CO2(g)           -6.67     -8.13   -1.47  CO2
	Dolomite(dis)   -14.92    -32.01  -17.09  CaMg(CO3)2
	H2(g)            -7.20     35.80   43.00  H2
	O2(g)           -68.70    -71.59   -2.89  O2


------------------
End of simulation.
------------------

------------------------------------
Reading input data for simulation 5.
------------------------------------

	SOLUTION 5 #New Version 
	units mol/kgw 
	temp 25.000000 
	C(4)       8.698279761942e-08     # comp 
	Ca       8.696384209680e-08     # comp 
	Mg       9.999527688225e-04     # comp 
	Cl       1.999905427144e-03     # comp 
	pH       7.125477095124e+00 charge        # comp 
	pe       -3.506897402387e+00       # comp 
	KINETICS 5
	Calcite  # comp
	m 0.000000000000e+00
	steps 1.000000000000e+02 in 1 steps
	Dolomite(dis)  # comp
	m 0.000000000000e+00
	RATES 5
	Calcite
	  start
	rem kmech = k25*exp(-Eact/R*(1/T-1/298.15))*Product([Ci]^nyi)
	10  R = 8.314472
	11  deltaT = 1/TK - 1/298.15
	12  e = 2.7183
	rem acidic mechanism
	13  Ea = 14400
	14  logK25 = -0.299988938
	15  ny = 1.0
	rem 16  mech_a = (10^logK25) * (e^(-Ea/R*deltaT)) * ACT("H+")^ny
	16  mech_a = (10^logK25) * ACT("H+")^ny
	rem base term (neutral mechanism)
	23  Ea = 23500
	24  logK25 = -5.709965389
	rem 26  mech_b = (10^logK25) * (e^(-Ea/R*deltaT)) 
	26  mech_b = (10^logK25) 
	30  rate = mech_a + mech_b
	40  teta = 1 
	41  eta = 1
	42  Area = .01
	70  rate = Area * rate * (1 - SR("Calcite")^teta)^eta
	80  moles = rate * time
	100 save moles
	  end
	Dolomite(dis)
	  start
	rem kmech = k25*exp(-Eact/R*(1/T-1/298.15))*Product([Ci]^nyi)
	10  R = 8.314472
	11  deltaT = 1/TK - 1/298.15
	12  e = 2.7183
	rem acidic mechanism
	13  Ea = 36100
	14  logK25 = -3.19
	15  ny = 0.5
	rem 16  mech_a = (10^logK25) * (e^(-Ea/R*deltaT)) * ACT("H+")^ny
	16  mech_a = (10^logK25) * ACT("H+")^ny
	rem base term (neutral mechanism)
	23  Ea = 52200
	24  logK25 = -7.53
	rem 26  mech_b = (10^logK25) * (e^(-Ea/R*deltaT)) 
	26  mech_b = (10^logK25) 
	30  rate = mech_a + mech_b
	40  teta = 1 
	41  eta = 1
	42  Area = .001
	70  rate = Area * rate * (1 - SR("Dolomite(dis)")^teta)^eta
	80  moles = rate * time
	100 save moles
	  end
	END
-------------------------------------------
Beginning of initial solution calculations.
-------------------------------------------

Initial solution 5.	

-----------------------------Solution composition------------------------------

	Elements           Molality       Moles

	C(4)              8.698e-08   8.698e-08
	Ca                8.696e-08   8.696e-08
	Cl                2.000e-03   2.000e-03
	Mg                1.000e-03   1.000e-03

----------------------------Description of solution----------------------------

                                       pH  =   7.119      Charge balance
                                       pe  =  -3.507    
                        Activity of water  =   1.000
                           Ionic strength  =   3.000e-03
                       Mass of water (kg)  =   1.000e+00
                 Total alkalinity (eq/kg)  =   1.740e-07
                       Total CO2 (mol/kg)  =   8.698e-08
                      Temperature (deg C)  =  25.00
                  Electrical balance (eq)  =   3.356e-16
 Percent error, 100*(Cat-|An|)/(Cat+|An|)  =   0.00
                               Iterations  =   4
                                  Total H  = 1.110124e+02
                                  Total O  = 5.550622e+01

----------------------------Distribution of species----------------------------

                                               Log       Log       Log    mole V
   Species          Molality    Activity  Molality  Activity     Gamma   cm3/mol

   OH-             1.398e-07   1.316e-07    -6.855    -6.881    -0.026     (0)  
   H+              8.074e-08   7.604e-08    -7.093    -7.119    -0.026      0.00
   H2O             5.551e+01   9.999e-01     1.744    -0.000     0.000     18.07
C(4)          8.698e-08
   HCO3-           7.426e-08   6.994e-08    -7.129    -7.155    -0.026     (0)  
   CO2             1.195e-08   1.196e-08    -7.923    -7.922     0.000     (0)  
   MgHCO3+         6.837e-10   6.439e-10    -9.165    -9.191    -0.026     (0)  
   CO3-2           5.482e-11   4.314e-11   -10.261   -10.365    -0.104     (0)  
   MgCO3           3.236e-11   3.239e-11   -10.490   -10.490     0.000     (0)  
   CaHCO3+         6.483e-14   6.106e-14   -13.188   -13.214    -0.026     (0)  
   CaCO3           4.955e-15   4.958e-15   -14.305   -14.305     0.000     (0)  
Ca            8.696e-08
   Ca+2            8.696e-08   6.843e-08    -7.061    -7.165    -0.104     (0)  
   CaOH+           1.586e-13   1.493e-13   -12.800   -12.826    -0.026     (0)  
   CaHCO3+         6.483e-14   6.106e-14   -13.188   -13.214    -0.026     (0)  
   CaCO3           4.955e-15   4.958e-15   -14.305   -14.305     0.000     (0)  
Cl            2.000e-03
   Cl-             2.000e-03   1.884e-03    -2.699    -2.725    -0.026     (0)  
H(0)          8.446e-11
   H2              4.223e-11   4.226e-11   -10.374   -10.374     0.000     (0)  
Mg            1.000e-03
   Mg+2            9.999e-04   7.868e-04    -3.000    -3.104    -0.104     (0)  
   MgOH+           3.988e-08   3.756e-08    -7.399    -7.425    -0.026     (0)  
   MgHCO3+         6.837e-10   6.439e-10    -9.165    -9.191    -0.026     (0)  
   MgCO3           3.236e-11   3.239e-11   -10.490   -10.490     0.000     (0)  
O(0)          0.000e+00
   O2              0.000e+00   0.000e+00   -71.632   -71.632     0.000     (0)  

------------------------------Saturation indices-------------------------------

	Phase               SI   log IAP   log K(298 K,   1 atm)

	Aragonite        -9.19    -17.53   -8.34  CaCO3
	Calcite          -9.05    -17.53   -8.48  CaCO3
	CO2(g)           -6.45     -7.92   -1.47  CO2
	Dolomite(dis)   -13.91    -31.00  -17.09  CaMg(CO3)2
	H2(g)            -7.18     35.82   43.00  H2
	O2(g)           -68.74    -71.63   -2.89  O2


-----------------------------------------
Beginning of batch-reaction calculations.
-----------------------------------------

Reaction step 1.

Using solution 5.	
Using kinetics 5.	

Kinetics 5.	

	Time step: 100 seconds

	Rate name       Delta Moles Total Moles   Reactant        Coefficient

	Calcite          -0.000e+00   0.000e+00   Calcite                   1
	Dolomite(dis)    -0.000e+00   0.000e+00   Dolomite(dis)             1

-----------------------------Solution composition------------------------------

	Elements           Molality       Moles

	C                 8.698e-08   8.698e-08
	Ca                8.696e-08   8.696e-08
	Cl                2.000e-03   2.000e-03
	Mg                1.000e-03   1.000e-03

----------------------------Description of solution----------------------------

                                       pH  =   7.119      Charge balance
                                       pe  =  -3.500      Adjusted to redox equilibrium
                        Activity of water  =   1.000
                           Ionic strength  =   3.000e-03
                       Mass of water (kg)  =   1.000e+00
                 Total alkalinity (eq/kg)  =   1.740e-07
                       Total CO2 (mol/kg)  =   8.698e-08
                      Temperature (deg C)  =  25.00
                  Electrical balance (eq)  =   3.347e-16
 Percent error, 100*(Cat-|An|)/(Cat+|An|)  =   0.00
                               Iterations  =   2
                                  Total H  = 1.110124e+02
                                  Total O  = 5.550622e+01

----------------------------Distribution of species----------------------------

                                               Log       Log       Log    mole V
   Species          Molality    Activity  Molality  Activity     Gamma   cm3/mol

   OH-             1.398e-07   1.316e-07    -6.855    -6.881    -0.026     (0)  
   H+              8.074e-08   7.604e-08    -7.093    -7.119    -0.026      0.00
   H2O             5.551e+01   9.999e-01     1.744    -0.000     0.000     18.07
C(-4)         3.289e-13
   CH4             3.289e-13   3.291e-13   -12.483   -12.483     0.000     (0)  
C(4)          8.698e-08
   HCO3-           7.426e-08   6.994e-08    -7.129    -7.155    -0.026     (0)  
   CO2             1.195e-08   1.196e-08    -7.923    -7.922     0.000     (0)  
   MgHCO3+         6.837e-10   6.439e-10    -9.165    -9.191    -0.026     (0)  
   CO3-2           5.482e-11   4.313e-11   -10.261   -10.365    -0.104     (0)  
   MgCO3           3.236e-11   3.239e-11   -10.490   -10.490     0.000     (0)  
   CaHCO3+         6.483e-14   6.106e-14   -13.188   -13.214    -0.026     (0)  
   CaCO3           4.955e-15   4.958e-15   -14.305   -14.305     0.000     (0)  
Ca            8.696e-08
   Ca+2            8.696e-08   6.843e-08    -7.061    -7.165    -0.104     (0)  
   CaOH+           1.586e-13   1.493e-13   -12.800   -12.826    -0.026     (0)  
   CaHCO3+         6.483e-14   6.106e-14   -13.188   -13.214    -0.026     (0)  
   CaCO3           4.955e-15   4.958e-15   -14.305   -14.305     0.000     (0)  
Cl            2.000e-03
   Cl-             2.000e-03   1.884e-03    -2.699    -2.725    -0.026     (0)  
H(0)          8.186e-11
   H2              4.093e-11   4.096e-11   -10.388   -10.388     0.000     (0)  
Mg            1.000e-03
   Mg+2            9.999e-04   7.868e-04    -3.000    -3.104    -0.104     (0)  
   MgOH+           3.988e-08   3.756e-08    -7.399    -7.425    -0.026     (0)  
   MgHCO3+         6.837e-10   6.439e-10    -9.165    -9.191    -0.026     (0)  
   MgCO3           3.236e-11   3.239e-11   -10.490   -10.490     0.000     (0)  
O(0)          0.000e+00
   O2              0.000e+00   0.000e+00   -71.605   -71.605     0.000     (0)  

------------------------------Saturation indices-------------------------------

	Phase               SI   log IAP   log K(298 K,   1 atm)

	Aragonite        -9.19    -17.53   -8.34  CaCO3
	Calcite          -9.05    -17.53   -8.48  CaCO3
	CH4(g)           -9.64    -12.48   -2.84  CH4
	CO2(g)           -6.45     -7.92   -1.47  CO2
	Dolomite(dis)   -13.91    -31.00  -17.09  CaMg(CO3)2
	H2(g)            -7.20     35.80   43.00  H2
	O2(g)           -68.71    -71.60   -2.89  O2


------------------
End of simulation.
------------------

------------------------------------
Reading input data for simulation 6.
------------------------------------

	SOLUTION 6 #New Version 
	units mol/kgw 
	temp 25.000000 
	C(4)       1.536256730098e-07     # comp 
	Ca       1.535678852898e-07     # comp 
	Mg       9.999171261336e-04     # comp 
	Cl       1.999834015392e-03     # comp 
	pH       7.241024368862e+00 charge        # comp 
	pe       -3.625772537668e+00       # comp 
	KINETICS 6
	Calcite  # comp
	m 0.000000000000e+00
	steps 1.000000000000e+02 in 1 steps
	Dolomite(dis)  # comp
	m 0.000000000000e+00
	RATES 6
	Calcite
	  start
	rem kmech = k25*exp(-Eact/R*(1/T-1/298.15))*Product([Ci]^nyi)
	10  R = 8.314472
	11  deltaT = 1/TK - 1/298.15
	12  e = 2.7183
	rem acidic mechanism
	13  Ea = 14400
	14  logK25 = -0.299988938
	15  ny = 1.0
	rem 16  mech_a = (10^logK25) * (e^(-Ea/R*deltaT)) * ACT("H+")^ny
	16  mech_a = (10^logK25) * ACT("H+")^ny
	rem base term (neutral mechanism)
	23  Ea = 23500
	24  logK25 = -5.709965389
	rem 26  mech_b = (10^logK25) * (e^(-Ea/R*deltaT)) 
	26  mech_b = (10^logK25) 
	30  rate = mech_a + mech_b
	40  teta = 1 
	41  eta = 1
	42  Area = .01
	70  rate = Area * rate * (1 - SR("Calcite")^teta)^eta
	80  moles = rate * time
	100 save moles
	  end
	Dolomite(dis)
	  start
	rem kmech = k25*exp(-Eact/R*(1/T-1/298.15))*Product([Ci]^nyi)
	10  R = 8.314472
	11  deltaT = 1/TK - 1/298.15
	12  e = 2.7183
	rem acidic mechanism
	13  Ea = 36100
	14  logK25 = -3.19
	15  ny = 0.5
	rem 16  mech_a = (10^logK25) * (e^(-Ea/R*deltaT)) * ACT("H+")^ny
	16  mech_a = (10^logK25) * ACT("H+")^ny
	rem base term (neutral mechanism)
	23  Ea = 52200
	24  logK25 = -7.53
	rem 26  mech_b = (10^logK25) * (e^(-Ea/R*deltaT)) 
	26  mech_b = (10^logK25) 
	30  rate = mech_a + mech_b
	40  teta = 1 
	41  eta = 1
	42  Area = .001
	70  rate = Area * rate * (1 - SR("Dolomite(dis)")^teta)^eta
	80  moles = rate * time
	100 save moles
	  end
	END
-------------------------------------------
Beginning of initial solution calculations.
-------------------------------------------

Initial solution 6.	

-----------------------------Solution composition------------------------------

	Elements           Molality       Moles

	C(4)              1.536e-07   1.536e-07
	Ca                1.536e-07   1.536e-07
	Cl                2.000e-03   2.000e-03
	Mg                9.999e-04   9.999e-04

----------------------------Description of solution----------------------------

                                       pH  =   7.231      Charge balance
                                       pe  =  -3.626    
                        Activity of water  =   1.000
                           Ionic strength  =   3.000e-03
                       Mass of water (kg)  =   1.000e+00
                 Total alkalinity (eq/kg)  =   3.074e-07
                       Total CO2 (mol/kg)  =   1.536e-07
                      Temperature (deg C)  =  25.00
                  Electrical balance (eq)  =   3.340e-16
 Percent error, 100*(Cat-|An|)/(Cat+|An|)  =   0.00
                               Iterations  =   4
                                  Total H  = 1.110124e+02
                                  Total O  = 5.550622e+01

----------------------------Distribution of species----------------------------

                                               Log       Log       Log    mole V
   Species          Molality    Activity  Molality  Activity     Gamma   cm3/mol

   OH-             1.810e-07   1.705e-07    -6.742    -6.768    -0.026     (0)  
   H+              6.234e-08   5.871e-08    -7.205    -7.231    -0.026      0.00
   H2O             5.551e+01   9.999e-01     1.744    -0.000     0.000     18.07
C(4)          1.536e-07
   HCO3-           1.354e-07   1.275e-07    -6.869    -6.895    -0.026     (0)  
   CO2             1.682e-08   1.683e-08    -7.774    -7.774     0.000     (0)  
   MgHCO3+         1.246e-09   1.174e-09    -8.904    -8.930    -0.026     (0)  
   CO3-2           1.294e-10   1.018e-10    -9.888    -9.992    -0.104     (0)  
   MgCO3           7.640e-11   7.645e-11   -10.117   -10.117     0.000     (0)  
   CaHCO3+         2.087e-13   1.965e-13   -12.681   -12.707    -0.026     (0)  
   CaCO3           2.066e-14   2.067e-14   -13.685   -13.685     0.000     (0)  
Ca            1.536e-07
   Ca+2            1.536e-07   1.208e-07    -6.814    -6.918    -0.104     (0)  
   CaOH+           3.627e-13   3.416e-13   -12.441   -12.467    -0.026     (0)  
   CaHCO3+         2.087e-13   1.965e-13   -12.681   -12.707    -0.026     (0)  
   CaCO3           2.066e-14   2.067e-14   -13.685   -13.685     0.000     (0)  
Cl            2.000e-03
   Cl-             2.000e-03   1.884e-03    -2.699    -2.725    -0.026     (0)  
H(0)          8.703e-11
   H2              4.352e-11   4.355e-11   -10.361   -10.361     0.000     (0)  
Mg            9.999e-04
   Mg+2            9.999e-04   7.867e-04    -3.000    -3.104    -0.104     (0)  
   MgOH+           5.166e-08   4.865e-08    -7.287    -7.313    -0.026     (0)  
   MgHCO3+         1.246e-09   1.174e-09    -8.904    -8.930    -0.026     (0)  
   MgCO3           7.640e-11   7.645e-11   -10.117   -10.117     0.000     (0)  
O(0)          0.000e+00
   O2              0.000e+00   0.000e+00   -71.658   -71.658     0.000     (0)  

------------------------------Saturation indices-------------------------------

	Phase               SI   log IAP   log K(298 K,   1 atm)

	Aragonite        -8.57    -16.91   -8.34  CaCO3
	Calcite          -8.43    -16.91   -8.48  CaCO3
	CO2(g)           -6.31     -7.77   -1.47  CO2
	Dolomite(dis)   -12.92    -30.01  -17.09  CaMg(CO3)2
	H2(g)            -7.17     35.83   43.00  H2
	O2(g)           -68.77    -71.66   -2.89  O2


-----------------------------------------
Beginning of batch-reaction calculations.
-----------------------------------------

Reaction step 1.

Using solution 6.	
Using kinetics 6.	

Kinetics 6.	

	Time step: 100 seconds

	Rate name       Delta Moles Total Moles   Reactant        Coefficient

	Calcite          -0.000e+00   0.000e+00   Calcite                   1
	Dolomite(dis)    -0.000e+00   0.000e+00   Dolomite(dis)             1

-----------------------------Solution composition------------------------------

	Elements           Molality       Moles

	C                 1.536e-07   1.536e-07
	Ca                1.536e-07   1.536e-07
	Cl                2.000e-03   2.000e-03
	Mg                9.999e-04   9.999e-04

----------------------------Description of solution----------------------------

                                       pH  =   7.231      Charge balance
                                       pe  =  -3.616      Adjusted to redox equilibrium
                        Activity of water  =   1.000
                           Ionic strength  =   3.000e-03
                       Mass of water (kg)  =   1.000e+00
                 Total alkalinity (eq/kg)  =   3.074e-07
                       Total CO2 (mol/kg)  =   1.536e-07
                      Temperature (deg C)  =  25.00
                  Electrical balance (eq)  =   3.314e-16
 Percent error, 100*(Cat-|An|)/(Cat+|An|)  =   0.00
                               Iterations  =   2
                                  Total H  = 1.110124e+02
                                  Total O  = 5.550622e+01

----------------------------Distribution of species----------------------------

                                               Log       Log       Log    mole V
   Species          Molality    Activity  Molality  Activity     Gamma   cm3/mol

   OH-             1.810e-07   1.705e-07    -6.742    -6.768    -0.026     (0)  
   H+              6.234e-08   5.871e-08    -7.205    -7.231    -0.026      0.00
   H2O             5.551e+01   9.999e-01     1.744    -0.000     0.000     18.07
C(-4)         4.911e-13
   CH4             4.911e-13   4.914e-13   -12.309   -12.309     0.000     (0)  
C(4)          1.536e-07
   HCO3-           1.354e-07   1.275e-07    -6.869    -6.895    -0.026     (0)  
   CO2             1.682e-08   1.683e-08    -7.774    -7.774     0.000     (0)  
   MgHCO3+         1.246e-09   1.174e-09    -8.904    -8.930    -0.026     (0)  
   CO3-2           1.294e-10   1.018e-10    -9.888    -9.992    -0.104     (0)  
   MgCO3           7.640e-11   7.645e-11   -10.117   -10.117     0.000     (0)  
   CaHCO3+         2.087e-13   1.965e-13   -12.681   -12.707    -0.026     (0)  
   CaCO3           2.066e-14   2.067e-14   -13.685   -13.685     0.000     (0)  
Ca            1.536e-07
   Ca+2            1.536e-07   1.208e-07    -6.814    -6.918    -0.104     (0)  
   CaOH+           3.627e-13   3.416e-13   -12.441   -12.467    -0.026     (0)  
   CaHCO3+         2.087e-13   1.965e-13   -12.681   -12.707    -0.026     (0)  
   CaCO3           2.066e-14   2.067e-14   -13.685   -13.685     0.000     (0)  
Cl            2.000e-03
   Cl-             2.000e-03   1.884e-03    -2.699    -2.725    -0.026     (0)  
H(0)          8.308e-11
   H2              4.154e-11   4.157e-11   -10.382   -10.381     0.000     (0)  
Mg            9.999e-04
   Mg+2            9.999e-04   7.867e-04    -3.000    -3.104    -0.104     (0)  
   MgOH+           5.166e-08   4.865e-08    -7.287    -7.313    -0.026     (0)  
   MgHCO3+         1.246e-09   1.174e-09    -8.904    -8.930    -0.026     (0)  
   MgCO3           7.640e-11   7.645e-11   -10.117   -10.117     0.000     (0)  
O(0)          0.000e+00
   O2              0.000e+00   0.000e+00   -71.618   -71.618     0.000     (0)  

------------------------------Saturation indices-------------------------------

	Phase               SI   log IAP   log K(298 K,   1 atm)

	Aragonite        -8.57    -16.91   -8.34  CaCO3
	Calcite          -8.43    -16.91   -8.48  CaCO3
	CH4(g)           -9.47    -12.31   -2.84  CH4
	CO2(g)           -6.31     -7.77   -1.47  CO2
	Dolomite(dis)   -12.92    -30.01  -17.09  CaMg(CO3)2
	H2(g)            -7.19     35.81   43.00  H2
	O2(g)           -68.73    -71.62   -2.89  O2


------------------
End of simulation.
------------------

------------------------------------
Reading input data for simulation 7.
------------------------------------

	SOLUTION 7 #New Version 
	units mol/kgw 
	temp 25.000000 
	C(4)       2.586903993833e-07     # comp 
	Ca       2.585380886500e-07     # comp 
	Mg       9.998616702038e-04     # comp 
	Cl       1.999722844221e-03     # comp 
	pH       7.387805946956e+00 charge        # comp 
	pe       -3.774481382664e+00       # comp 
	KINETICS 7
	Calcite  # comp
	m 0.000000000000e+00
	steps 1.000000000000e+02 in 1 steps
	Dolomite(dis)  # comp
	m 0.000000000000e+00
	RATES 7
	Calcite
	  start
	rem kmech = k25*exp(-Eact/R*(1/T-1/298.15))*Product([Ci]^nyi)
	10  R = 8.314472
	11  deltaT = 1/TK - 1/298.15
	12  e = 2.7183
	rem acidic mechanism
	13  Ea = 14400
	14  logK25 = -0.299988938
	15  ny = 1.0
	rem 16  mech_a = (10^logK25) * (e^(-Ea/R*deltaT)) * ACT("H+")^ny
	16  mech_a = (10^logK25) * ACT("H+")^ny
	rem base term (neutral mechanism)
	23  Ea = 23500
	24  logK25 = -5.709965389
	rem 26  mech_b = (10^logK25) * (e^(-Ea/R*deltaT)) 
	26  mech_b = (10^logK25) 
	30  rate = mech_a + mech_b
	40  teta = 1 
	41  eta = 1
	42  Area = .01
	70  rate = Area * rate * (1 - SR("Calcite")^teta)^eta
	80  moles = rate * time
	100 save moles
	  end
	Dolomite(dis)
	  start
	rem kmech = k25*exp(-Eact/R*(1/T-1/298.15))*Product([Ci]^nyi)
	10  R = 8.314472
	11  deltaT = 1/TK - 1/298.15
	12  e = 2.7183
	rem acidic mechanism
	13  Ea = 36100
	14  logK25 = -3.19
	15  ny = 0.5
	rem 16  mech_a = (10^logK25) * (e^(-Ea/R*deltaT)) * ACT("H+")^ny
	16  mech_a = (10^logK25) * ACT("H+")^ny
	rem base term (neutral mechanism)
	23  Ea = 52200
	24  logK25 = -7.53
	rem 26  mech_b = (10^logK25) * (e^(-Ea/R*deltaT)) 
	26  mech_b = (10^logK25) 
	30  rate = mech_a + mech_b
	40  teta = 1 
	41  eta = 1
	42  Area = .001
	70  rate = Area * rate * (1 - SR("Dolomite(dis)")^teta)^eta
	80  moles = rate * time
	100 save moles
	  end
	END
-------------------------------------------
Beginning of initial solution calculations.
-------------------------------------------

Initial solution 7.	

-----------------------------Solution composition------------------------------

	Elements           Molality       Moles

	C(4)              2.587e-07   2.587e-07
	Ca                2.585e-07   2.585e-07
	Cl                2.000e-03   2.000e-03
	Mg                9.999e-04   9.999e-04

----------------------------Description of solution----------------------------

                                       pH  =   7.375      Charge balance
                                       pe  =  -3.774    
                        Activity of water  =   1.000
                           Ionic strength  =   3.000e-03
                       Mass of water (kg)  =   1.000e+00
                 Total alkalinity (eq/kg)  =   5.176e-07
                       Total CO2 (mol/kg)  =   2.587e-07
                      Temperature (deg C)  =  25.00
                  Electrical balance (eq)  =   3.320e-16
 Percent error, 100*(Cat-|An|)/(Cat+|An|)  =   0.00
                               Iterations  =   4
                                  Total H  = 1.110124e+02
                                  Total O  = 5.550622e+01

----------------------------Distribution of species----------------------------

                                               Log       Log       Log    mole V
   Species          Molality    Activity  Molality  Activity     Gamma   cm3/mol

   OH-             2.522e-07   2.375e-07    -6.598    -6.624    -0.026     (0)  
   H+              4.475e-08   4.215e-08    -7.349    -7.375    -0.026      0.00
   H2O             5.551e+01   9.999e-01     1.744    -0.000     0.000     18.07
C(4)          2.587e-07
   HCO3-           2.351e-07   2.214e-07    -6.629    -6.655    -0.026     (0)  
   CO2             2.097e-08   2.098e-08    -7.678    -7.678     0.000     (0)  
   MgHCO3+         2.164e-09   2.038e-09    -8.665    -8.691    -0.026     (0)  
   CO3-2           3.130e-10   2.463e-10    -9.504    -9.609    -0.104     (0)  
   MgCO3           1.848e-10   1.849e-10    -9.733    -9.733     0.000     (0)  
   CaHCO3+         6.101e-13   5.746e-13   -12.215   -12.241    -0.026     (0)  
   CaCO3           8.412e-14   8.418e-14   -13.075   -13.075     0.000     (0)  
Ca            2.585e-07
   Ca+2            2.585e-07   2.034e-07    -6.587    -6.692    -0.104     (0)  
   CaOH+           8.504e-13   8.009e-13   -12.070   -12.096    -0.026     (0)  
   CaHCO3+         6.101e-13   5.746e-13   -12.215   -12.241    -0.026     (0)  
   CaCO3           8.412e-14   8.418e-14   -13.075   -13.075     0.000     (0)  
Cl            2.000e-03
   Cl-             2.000e-03   1.883e-03    -2.699    -2.725    -0.026     (0)  
H(0)          8.898e-11
   H2              4.449e-11   4.452e-11   -10.352   -10.351     0.000     (0)  
Mg            9.999e-04
   Mg+2            9.998e-04   7.867e-04    -3.000    -3.104    -0.104     (0)  
   MgOH+           7.195e-08   6.776e-08    -7.143    -7.169    -0.026     (0)  
   MgHCO3+         2.164e-09   2.038e-09    -8.665    -8.691    -0.026     (0)  
   MgCO3           1.848e-10   1.849e-10    -9.733    -9.733     0.000     (0)  
O(0)          0.000e+00
   O2              0.000e+00   0.000e+00   -71.677   -71.677     0.000     (0)  

------------------------------Saturation indices-------------------------------

	Phase               SI   log IAP   log K(298 K,   1 atm)

	Aragonite        -7.96    -16.30   -8.34  CaCO3
	Calcite          -7.82    -16.30   -8.48  CaCO3
	CO2(g)           -6.21     -7.68   -1.47  CO2
	Dolomite(dis)   -11.92    -29.01  -17.09  CaMg(CO3)2
	H2(g)            -7.16     35.84   43.00  H2
	O2(g)           -68.78    -71.68   -2.89  O2


-----------------------------------------
Beginning of batch-reaction calculations.
-----------------------------------------

Reaction step 1.

Using solution 7.	
Using kinetics 7.	

Kinetics 7.	

	Time step: 100 seconds

	Rate name       Delta Moles Total Moles   Reactant        Coefficient

	Calcite          -0.000e+00   0.000e+00   Calcite                   1
	Dolomite(dis)    -0.000e+00   0.000e+00   Dolomite(dis)             1

-----------------------------Solution composition------------------------------

	Elements           Molality       Moles

	C                 2.587e-07   2.587e-07
	Ca                2.585e-07   2.585e-07
	Cl                2.000e-03   2.000e-03
	Mg                9.999e-04   9.999e-04

----------------------------Description of solution----------------------------

                                       pH  =   7.375      Charge balance
                                       pe  =  -3.762      Adjusted to redox equilibrium
                        Activity of water  =   1.000
                           Ionic strength  =   3.000e-03
                       Mass of water (kg)  =   1.000e+00
                 Total alkalinity (eq/kg)  =   5.176e-07
                       Total CO2 (mol/kg)  =   2.587e-07
                      Temperature (deg C)  =  25.00
                  Electrical balance (eq)  =   3.355e-16
 Percent error, 100*(Cat-|An|)/(Cat+|An|)  =   0.00
                               Iterations  =   2
                                  Total H  = 1.110124e+02
                                  Total O  = 5.550622e+01

----------------------------Distribution of species----------------------------

                                               Log       Log       Log    mole V
   Species          Molality    Activity  Molality  Activity     Gamma   cm3/mol

   OH-             2.522e-07   2.375e-07    -6.598    -6.624    -0.026     (0)  
   H+              4.475e-08   4.215e-08    -7.349    -7.375    -0.026      0.00
   H2O             5.551e+01   9.999e-01     1.744    -0.000     0.000     18.07
C(-4)         6.365e-13
   CH4             6.365e-13   6.369e-13   -12.196   -12.196     0.000     (0)  
C(4)          2.587e-07
   HCO3-           2.351e-07   2.214e-07    -6.629    -6.655    -0.026     (0)  
   CO2             2.097e-08   2.098e-08    -7.678    -7.678     0.000     (0)  
   MgHCO3+         2.164e-09   2.038e-09    -8.665    -8.691    -0.026     (0)  
   CO3-2           3.130e-10   2.463e-10    -9.504    -9.609    -0.104     (0)  
   MgCO3           1.848e-10   1.849e-10    -9.733    -9.733     0.000     (0)  
   CaHCO3+         6.101e-13   5.746e-13   -12.215   -12.241    -0.026     (0)  
   CaCO3           8.412e-14   8.418e-14   -13.075   -13.075     0.000     (0)  
Ca            2.585e-07
   Ca+2            2.585e-07   2.034e-07    -6.587    -6.692    -0.104     (0)  
   CaOH+           8.504e-13   8.009e-13   -12.070   -12.096    -0.026     (0)  
   CaHCO3+         6.101e-13   5.746e-13   -12.215   -12.241    -0.026     (0)  
   CaCO3           8.412e-14   8.418e-14   -13.075   -13.075     0.000     (0)  
Cl            2.000e-03
   Cl-             2.000e-03   1.883e-03    -2.699    -2.725    -0.026     (0)  
H(0)          8.389e-11
   H2              4.194e-11   4.197e-11   -10.377   -10.377     0.000     (0)  
Mg            9.999e-04
   Mg+2            9.998e-04   7.867e-04    -3.000    -3.104    -0.104     (0)  
   MgOH+           7.195e-08   6.776e-08    -7.143    -7.169    -0.026     (0)  
   MgHCO3+         2.164e-09   2.038e-09    -8.665    -8.691    -0.026     (0)  
   MgCO3           1.848e-10   1.849e-10    -9.733    -9.733     0.000     (0)  
O(0)          0.000e+00
   O2              0.000e+00   0.000e+00   -71.626   -71.626     0.000     (0)  

------------------------------Saturation indices-------------------------------

	Phase               SI   log IAP   log K(298 K,   1 atm)

	Aragonite        -7.96    -16.30   -8.34  CaCO3
	Calcite          -7.82    -16.30   -8.48  CaCO3
	CH4(g)           -9.35    -12.20   -2.84  CH4
	CO2(g)           -6.21     -7.68   -1.47  CO2
	Dolomite(dis)   -11.92    -29.01  -17.09  CaMg(CO3)2
	H2(g)            -7.18     35.81   43.00  H2
	O2(g)           -68.73    -71.63   -2.89  O2


------------------
End of simulation.
------------------

------------------------------------
Reading input data for simulation 8.
------------------------------------

	SOLUTION 8 #New Version 
	units mol/kgw 
	temp 25.000000 
	C(4)       4.206874118239e-07     # comp 
	Ca       4.203219978547e-07     # comp 
	Mg       9.997775563031e-04     # comp 
	Cl       1.999554091669e-03     # comp 
	pH       7.555086974948e+00 charge        # comp 
	pe       -3.942287621780e+00       # comp 
	KINETICS 8
	Calcite  # comp
	m 0.000000000000e+00
	steps 1.000000000000e+02 in 1 steps
	Dolomite(dis)  # comp
	m 0.000000000000e+00
	RATES 8
	Calcite
	  start
	rem kmech = k25*exp(-Eact/R*(1/T-1/298.15))*Product([Ci]^nyi)
	10  R = 8.314472
	11  deltaT = 1/TK - 1/298.15
	12  e = 2.7183
	rem acidic mechanism
	13  Ea = 14400
	14  logK25 = -0.299988938
	15  ny = 1.0
	rem 16  mech_a = (10^logK25) * (e^(-Ea/R*deltaT)) * ACT("H+")^ny
	16  mech_a = (10^logK25) * ACT("H+")^ny
	rem base term (neutral mechanism)
	23  Ea = 23500
	24  logK25 = -5.709965389
	rem 26  mech_b = (10^logK25) * (e^(-Ea/R*deltaT)) 
	26  mech_b = (10^logK25) 
	30  rate = mech_a + mech_b
	40  teta = 1 
	41  eta = 1
	42  Area = .01
	70  rate = Area * rate * (1 - SR("Calcite")^teta)^eta
	80  moles = rate * time
	100 save moles
	  end
	Dolomite(dis)
	  start
	rem kmech = k25*exp(-Eact/R*(1/T-1/298.15))*Product([Ci]^nyi)
	10  R = 8.314472
	11  deltaT = 1/TK - 1/298.15
	12  e = 2.7183
	rem acidic mechanism
	13  Ea = 36100
	14  logK25 = -3.19
	15  ny = 0.5
	rem 16  mech_a = (10^logK25) * (e^(-Ea/R*deltaT)) * ACT("H+")^ny
	16  mech_a = (10^logK25) * ACT("H+")^ny
	rem base term (neutral mechanism)
	23  Ea = 52200
	24  logK25 = -7.53
	rem 26  mech_b = (10^logK25) * (e^(-Ea/R*deltaT)) 
	26  mech_b = (10^logK25) 
	30  rate = mech_a + mech_b
	40  teta = 1 
	41  eta = 1
	42  Area = .001
	70  rate = Area * rate * (1 - SR("Dolomite(dis)")^teta)^eta
	80  moles = rate * time
	100 save moles
	  end
	END
-------------------------------------------
Beginning of initial solution calculations.
-------------------------------------------

Initial solution 8.	

-----------------------------Solution composition------------------------------

	Elements           Molality       Moles

	C(4)              4.207e-07   4.207e-07
	Ca                4.203e-07   4.203e-07
	Cl                2.000e-03   2.000e-03
	Mg                9.998e-04   9.998e-04

----------------------------Description of solution----------------------------

                                       pH  =   7.541      Charge balance
                                       pe  =  -3.942    
                        Activity of water  =   1.000
                           Ionic strength  =   3.000e-03
                       Mass of water (kg)  =   1.000e+00
                 Total alkalinity (eq/kg)  =   8.417e-07
                       Total CO2 (mol/kg)  =   4.207e-07
                      Temperature (deg C)  =  25.00
                  Electrical balance (eq)  =   3.351e-16
 Percent error, 100*(Cat-|An|)/(Cat+|An|)  =   0.00
                               Iterations  =   4
                                  Total H  = 1.110124e+02
                                  Total O  = 5.550622e+01

----------------------------Distribution of species----------------------------

                                               Log       Log       Log    mole V
   Species          Molality    Activity  Molality  Activity     Gamma   cm3/mol

   OH-             3.690e-07   3.475e-07    -6.433    -6.459    -0.026     (0)  
   H+              3.058e-08   2.881e-08    -7.514    -7.541    -0.026      0.00
   H2O             5.551e+01   9.999e-01     1.744    -0.000     0.000     18.07
C(4)          4.207e-07
   HCO3-           3.920e-07   3.692e-07    -6.407    -6.433    -0.026     (0)  
   CO2             2.389e-08   2.391e-08    -7.622    -7.621     0.000     (0)  
   MgHCO3+         3.608e-09   3.398e-09    -8.443    -8.469    -0.026     (0)  
   CO3-2           7.638e-10   6.010e-10    -9.117    -9.221    -0.104     (0)  
   MgCO3           4.508e-10   4.511e-10    -9.346    -9.346     0.000     (0)  
   CaHCO3+         1.654e-12   1.558e-12   -11.781   -11.808    -0.026     (0)  
   CaCO3           3.337e-13   3.339e-13   -12.477   -12.476     0.000     (0)  
Ca            4.203e-07
   Ca+2            4.203e-07   3.307e-07    -6.376    -6.481    -0.104     (0)  
   CaOH+           2.023e-12   1.905e-12   -11.694   -11.720    -0.026     (0)  
   CaHCO3+         1.654e-12   1.558e-12   -11.781   -11.808    -0.026     (0)  
   CaCO3           3.337e-13   3.339e-13   -12.477   -12.476     0.000     (0)  
Cl            2.000e-03
   Cl-             2.000e-03   1.883e-03    -2.699    -2.725    -0.026     (0)  
H(0)          9.000e-11
   H2              4.500e-11   4.503e-11   -10.347   -10.346     0.000     (0)  
Mg            9.998e-04
   Mg+2            9.997e-04   7.866e-04    -3.000    -3.104    -0.104     (0)  
   MgOH+           1.053e-07   9.914e-08    -6.978    -7.004    -0.026     (0)  
   MgHCO3+         3.608e-09   3.398e-09    -8.443    -8.469    -0.026     (0)  
   MgCO3           4.508e-10   4.511e-10    -9.346    -9.346     0.000     (0)  
O(0)          0.000e+00
   O2              0.000e+00   0.000e+00   -71.687   -71.687     0.000     (0)  

------------------------------Saturation indices-------------------------------

	Phase               SI   log IAP   log K(298 K,   1 atm)

	Aragonite        -7.37    -15.70   -8.34  CaCO3
	Calcite          -7.22    -15.70   -8.48  CaCO3
	CO2(g)           -6.15     -7.62   -1.47  CO2
	Dolomite(dis)   -10.94    -28.03  -17.09  CaMg(CO3)2
	H2(g)            -7.15     35.84   43.00  H2
	O2(g)           -68.79    -71.69   -2.89  O2


-----------------------------------------
Beginning of batch-reaction calculations.
-----------------------------------------

Reaction step 1.

Using solution 8.	
Using kinetics 8.	

Kinetics 8.	

	Time step: 100 seconds

	Rate name       Delta Moles Total Moles   Reactant        Coefficient

	Calcite          -0.000e+00   0.000e+00   Calcite                   1
	Dolomite(dis)    -0.000e+00   0.000e+00   Dolomite(dis)             1

-----------------------------Solution composition------------------------------

	Elements           Molality       Moles

	C                 4.207e-07   4.207e-07
	Ca                4.203e-07   4.203e-07
	Cl                2.000e-03   2.000e-03
	Mg                9.998e-04   9.998e-04

----------------------------Description of solution----------------------------

                                       pH  =   7.541      Charge balance
                                       pe  =  -3.928      Adjusted to redox equilibrium
                        Activity of water  =   1.000
                           Ionic strength  =   3.000e-03
                       Mass of water (kg)  =   1.000e+00
                 Total alkalinity (eq/kg)  =   8.417e-07
                       Total CO2 (mol/kg)  =   4.207e-07
                      Temperature (deg C)  =  25.00
                  Electrical balance (eq)  =   3.369e-16
 Percent error, 100*(Cat-|An|)/(Cat+|An|)  =   0.00
                               Iterations  =   2
                                  Total H  = 1.110124e+02
                                  Total O  = 5.550622e+01

----------------------------Distribution of species----------------------------

                                               Log       Log       Log    mole V
   Species          Molality    Activity  Molality  Activity     Gamma   cm3/mol

   OH-             3.690e-07   3.475e-07    -6.433    -6.459    -0.026     (0)  
   H+              3.058e-08   2.881e-08    -7.514    -7.541    -0.026      0.00
   H2O             5.551e+01   9.999e-01     1.744    -0.000     0.000     18.07
C(-4)         7.336e-13
   CH4             7.336e-13   7.341e-13   -12.135   -12.134     0.000     (0)  
C(4)          4.207e-07
   HCO3-           3.920e-07   3.692e-07    -6.407    -6.433    -0.026     (0)  
   CO2             2.389e-08   2.391e-08    -7.622    -7.621     0.000     (0)  
   MgHCO3+         3.608e-09   3.398e-09    -8.443    -8.469    -0.026     (0)  
   CO3-2           7.638e-10   6.010e-10    -9.117    -9.221    -0.104     (0)  
   MgCO3           4.508e-10   4.511e-10    -9.346    -9.346     0.000     (0)  
   CaHCO3+         1.654e-12   1.558e-12   -11.781   -11.808    -0.026     (0)  
   CaCO3           3.337e-13   3.339e-13   -12.477   -12.476     0.000     (0)  
Ca            4.203e-07
   Ca+2            4.203e-07   3.307e-07    -6.376    -6.481    -0.104     (0)  
   CaOH+           2.023e-12   1.905e-12   -11.694   -11.720    -0.026     (0)  
   CaHCO3+         1.654e-12   1.558e-12   -11.781   -11.808    -0.026     (0)  
   CaCO3           3.337e-13   3.339e-13   -12.477   -12.476     0.000     (0)  
Cl            2.000e-03
   Cl-             2.000e-03   1.883e-03    -2.699    -2.725    -0.026     (0)  
H(0)          8.413e-11
   H2              4.206e-11   4.209e-11   -10.376   -10.376     0.000     (0)  
Mg            9.998e-04
   Mg+2            9.997e-04   7.866e-04    -3.000    -3.104    -0.104     (0)  
   MgOH+           1.053e-07   9.914e-08    -6.978    -7.004    -0.026     (0)  
   MgHCO3+         3.608e-09   3.398e-09    -8.443    -8.469    -0.026     (0)  
   MgCO3           4.508e-10   4.511e-10    -9.346    -9.346     0.000     (0)  
O(0)          0.000e+00
[...]
	Mg       3.981239489973e-12     # comp 
	Cl       6.962584936242e-12     # comp 
	pH       9.909820194268e+00 charge        # comp 
	pe       8.354393366701e+00       # comp 
	KINETICS 100
	Calcite  # comp
	m 1.222170108338e-04
	steps 1.000000000000e+02 in 1 steps
	Dolomite(dis)  # comp
	m 0.000000000000e+00
	RATES 100
	Calcite
	  start
	rem kmech = k25*exp(-Eact/R*(1/T-1/298.15))*Product([Ci]^nyi)
	10  R = 8.314472
	11  deltaT = 1/TK - 1/298.15
	12  e = 2.7183
	rem acidic mechanism
	13  Ea = 14400
	14  logK25 = -0.299988938
	15  ny = 1.0
	rem 16  mech_a = (10^logK25) * (e^(-Ea/R*deltaT)) * ACT("H+")^ny
	16  mech_a = (10^logK25) * ACT("H+")^ny
	rem base term (neutral mechanism)
	23  Ea = 23500
	24  logK25 = -5.709965389
	rem 26  mech_b = (10^logK25) * (e^(-Ea/R*deltaT)) 
	26  mech_b = (10^logK25) 
	30  rate = mech_a + mech_b
	40  teta = 1 
	41  eta = 1
	42  Area = .01
	70  rate = Area * rate * (1 - SR("Calcite")^teta)^eta
	80  moles = rate * time
	100 save moles
	  end
	Dolomite(dis)
	  start
	rem kmech = k25*exp(-Eact/R*(1/T-1/298.15))*Product([Ci]^nyi)
	10  R = 8.314472
	11  deltaT = 1/TK - 1/298.15
	12  e = 2.7183
	rem acidic mechanism
	13  Ea = 36100
	14  logK25 = -3.19
	15  ny = 0.5
	rem 16  mech_a = (10^logK25) * (e^(-Ea/R*deltaT)) * ACT("H+")^ny
	16  mech_a = (10^logK25) * ACT("H+")^ny
	rem base term (neutral mechanism)
	23  Ea = 52200
	24  logK25 = -7.53
	rem 26  mech_b = (10^logK25) * (e^(-Ea/R*deltaT)) 
	26  mech_b = (10^logK25) 
	30  rate = mech_a + mech_b
	40  teta = 1 
	41  eta = 1
	42  Area = .001
	70  rate = Area * rate * (1 - SR("Dolomite(dis)")^teta)^eta
	80  moles = rate * time
	100 save moles
	  end
	END
-------------------------------------------
Beginning of initial solution calculations.
-------------------------------------------

Initial solution 100.	

-----------------------------Solution composition------------------------------

	Elements           Molality       Moles

	C(4)              1.228e-04   1.228e-04
	Ca                1.228e-04   1.228e-04
	Cl                6.963e-12   6.963e-12
	Mg                3.981e-12   3.981e-12

----------------------------Description of solution----------------------------

                                       pH  =   9.910      Charge balance
                                       pe  =   8.354    
                        Activity of water  =   1.000
                           Ionic strength  =   3.850e-04
                       Mass of water (kg)  =   1.000e+00
                 Total alkalinity (eq/kg)  =   2.456e-04
                       Total CO2 (mol/kg)  =   1.228e-04
                      Temperature (deg C)  =  25.00
                  Electrical balance (eq)  =  -2.439e-19
 Percent error, 100*(Cat-|An|)/(Cat+|An|)  =  -0.00
                               Iterations  =   4
                                  Total H  = 1.110126e+02
                                  Total O  = 5.550667e+01

----------------------------Distribution of species----------------------------

                                               Log       Log       Log    mole V
   Species          Molality    Activity  Molality  Activity     Gamma   cm3/mol

   OH-             8.318e-05   8.134e-05    -4.080    -4.090    -0.010     (0)  
   H+              1.259e-10   1.231e-10    -9.900    -9.910    -0.010      0.00
   H2O             5.551e+01   1.000e+00     1.744    -0.000     0.000     18.07
C(4)          1.228e-04
   HCO3-           8.317e-05   8.133e-05    -4.080    -4.090    -0.010     (0)  
   CO3-2           3.390e-05   3.099e-05    -4.470    -4.509    -0.039     (0)  
   CaCO3           5.564e-06   5.565e-06    -5.255    -5.255     0.000     (0)  
   CaHCO3+         1.134e-07   1.109e-07    -6.945    -6.955    -0.010     (0)  
   CO2             2.250e-08   2.250e-08    -7.648    -7.648     0.000     (0)  
   MgCO3           1.019e-13   1.020e-13   -12.992   -12.992     0.000     (0)  
   MgHCO3+         3.355e-15   3.281e-15   -14.474   -14.484    -0.010     (0)  
Ca            1.228e-04
   Ca+2            1.170e-04   1.069e-04    -3.932    -3.971    -0.039     (0)  
   CaCO3           5.564e-06   5.565e-06    -5.255    -5.255     0.000     (0)  
   CaOH+           1.474e-07   1.441e-07    -6.831    -6.841    -0.010     (0)  
   CaHCO3+         1.134e-07   1.109e-07    -6.945    -6.955    -0.010     (0)  
Cl            6.963e-12
   Cl-             6.963e-12   6.808e-12   -11.157   -11.167    -0.010     (0)  
H(0)          4.193e-40
   H2              2.097e-40   2.097e-40   -39.678   -39.678     0.000     (0)  
Mg            3.981e-12
   Mg+2            3.772e-12   3.448e-12   -11.423   -11.462    -0.039     (0)  
   MgOH+           1.040e-13   1.017e-13   -12.983   -12.993    -0.010     (0)  
   MgCO3           1.019e-13   1.020e-13   -12.992   -12.992     0.000     (0)  
   MgHCO3+         3.355e-15   3.281e-15   -14.474   -14.484    -0.010     (0)  
O(0)          1.896e-13
   O2              9.480e-14   9.481e-14   -13.023   -13.023     0.000     (0)  

------------------------------Saturation indices-------------------------------

	Phase               SI   log IAP   log K(298 K,   1 atm)

	Aragonite        -0.14     -8.48   -8.34  CaCO3
	Calcite           0.00     -8.48   -8.48  CaCO3
	CO2(g)           -6.18     -7.65   -1.47  CO2
	Dolomite(dis)    -7.36    -24.45  -17.09  CaMg(CO3)2
	H2(g)           -36.49      6.51   43.00  H2
	O2(g)           -10.13    -13.02   -2.89  O2


-----------------------------------------
Beginning of batch-reaction calculations.
-----------------------------------------

Reaction step 1.

Using solution 100.	
Using kinetics 100.	

Kinetics 100.	

	Time step: 100 seconds

	Rate name       Delta Moles Total Moles   Reactant        Coefficient

	Calcite           3.417e-12   1.222e-04   Calcite                   1
	Dolomite(dis)    -0.000e+00   0.000e+00   Dolomite(dis)             1

-----------------------------Solution composition------------------------------

	Elements           Molality       Moles

	C                 1.228e-04   1.228e-04
	Ca                1.228e-04   1.228e-04
	Cl                6.963e-12   6.963e-12
	Mg                3.981e-12   3.981e-12

----------------------------Description of solution----------------------------

                                       pH  =   9.910      Charge balance
                                       pe  =   8.357      Adjusted to redox equilibrium
                        Activity of water  =   1.000
                           Ionic strength  =   3.850e-04
                       Mass of water (kg)  =   1.000e+00
                 Total alkalinity (eq/kg)  =   2.456e-04
                       Total CO2 (mol/kg)  =   1.228e-04
                      Temperature (deg C)  =  25.00
                  Electrical balance (eq)  =  -6.099e-19
 Percent error, 100*(Cat-|An|)/(Cat+|An|)  =  -0.00
                               Iterations  =   3
                                  Total H  = 1.110126e+02
                                  Total O  = 5.550667e+01

----------------------------Distribution of species----------------------------

                                               Log       Log       Log    mole V
   Species          Molality    Activity  Molality  Activity     Gamma   cm3/mol

   OH-             8.318e-05   8.134e-05    -4.080    -4.090    -0.010     (0)  
   H+              1.259e-10   1.231e-10    -9.900    -9.910    -0.010      0.00
   H2O             5.551e+01   1.000e+00     1.744    -0.000     0.000     18.07
C(-4)         0.000e+00
   CH4             0.000e+00   0.000e+00  -129.396  -129.396     0.000     (0)  
C(4)          1.228e-04
   HCO3-           8.317e-05   8.133e-05    -4.080    -4.090    -0.010     (0)  
   CO3-2           3.390e-05   3.099e-05    -4.470    -4.509    -0.039     (0)  
   CaCO3           5.564e-06   5.565e-06    -5.255    -5.255     0.000     (0)  
   CaHCO3+         1.134e-07   1.109e-07    -6.945    -6.955    -0.010     (0)  
   CO2             2.250e-08   2.250e-08    -7.648    -7.648     0.000     (0)  
   MgCO3           1.019e-13   1.020e-13   -12.992   -12.992     0.000     (0)  
   MgHCO3+         3.355e-15   3.281e-15   -14.474   -14.484    -0.010     (0)  
Ca            1.228e-04
   Ca+2            1.170e-04   1.069e-04    -3.932    -3.971    -0.039     (0)  
   CaCO3           5.564e-06   5.565e-06    -5.255    -5.255     0.000     (0)  
   CaOH+           1.474e-07   1.441e-07    -6.831    -6.841    -0.010     (0)  
   CaHCO3+         1.134e-07   1.109e-07    -6.945    -6.955    -0.010     (0)  
Cl            6.963e-12
   Cl-             6.963e-12   6.808e-12   -11.157   -11.167    -0.010     (0)  
H(0)          4.134e-40
   H2              2.067e-40   2.067e-40   -39.685   -39.685     0.000     (0)  
Mg            3.981e-12
   Mg+2            3.772e-12   3.448e-12   -11.423   -11.462    -0.039     (0)  
   MgOH+           1.040e-13   1.017e-13   -12.983   -12.993    -0.010     (0)  
   MgCO3           1.019e-13   1.020e-13   -12.992   -12.992     0.000     (0)  
   MgHCO3+         3.355e-15   3.281e-15   -14.474   -14.484    -0.010     (0)  
O(0)          1.950e-13
   O2              9.752e-14   9.753e-14   -13.011   -13.011     0.000     (0)  

------------------------------Saturation indices-------------------------------

	Phase               SI   log IAP   log K(298 K,   1 atm)

	Aragonite        -0.14     -8.48   -8.34  CaCO3
	Calcite           0.00     -8.48   -8.48  CaCO3
	CH4(g)         -126.55   -129.40   -2.84  CH4
	CO2(g)           -6.18     -7.65   -1.47  CO2
	Dolomite(dis)    -7.36    -24.45  -17.09  CaMg(CO3)2
	H2(g)           -36.49      6.51   43.00  H2
	O2(g)           -10.12    -13.01   -2.89  O2


------------------
End of simulation.
------------------

--------------------------------------
Reading input data for simulation 101.
--------------------------------------

	SOLUTION 101 #New Version 
	units mol/kgw 
	temp 25.000000 
	C(4)       1.227753061457e-04     # comp 
	Ca       1.227753061454e-04     # comp 
	Mg       3.245458653380e-12     # comp 
	Cl       5.490991845873e-12     # comp 
	pH       9.909820194320e+00 charge        # comp 
	pe       8.354396071713e+00       # comp 
	KINETICS 101
	Calcite  # comp
	m 1.222170108339e-04
	steps 1.000000000000e+02 in 1 steps
	Dolomite(dis)  # comp
	m 0.000000000000e+00
	RATES 101
	Calcite
	  start
	rem kmech = k25*exp(-Eact/R*(1/T-1/298.15))*Product([Ci]^nyi)
	10  R = 8.314472
	11  deltaT = 1/TK - 1/298.15
	12  e = 2.7183
	rem acidic mechanism
	13  Ea = 14400
	14  logK25 = -0.299988938
	15  ny = 1.0
	rem 16  mech_a = (10^logK25) * (e^(-Ea/R*deltaT)) * ACT("H+")^ny
	16  mech_a = (10^logK25) * ACT("H+")^ny
	rem base term (neutral mechanism)
	23  Ea = 23500
	24  logK25 = -5.709965389
	rem 26  mech_b = (10^logK25) * (e^(-Ea/R*deltaT)) 
	26  mech_b = (10^logK25) 
	30  rate = mech_a + mech_b
	40  teta = 1 
	41  eta = 1
	42  Area = .01
	70  rate = Area * rate * (1 - SR("Calcite")^teta)^eta
	80  moles = rate * time
	100 save moles
	  end
	Dolomite(dis)
	  start
	rem kmech = k25*exp(-Eact/R*(1/T-1/298.15))*Product([Ci]^nyi)
	10  R = 8.314472
	11  deltaT = 1/TK - 1/298.15
	12  e = 2.7183
	rem acidic mechanism
	13  Ea = 36100
	14  logK25 = -3.19
	15  ny = 0.5
	rem 16  mech_a = (10^logK25) * (e^(-Ea/R*deltaT)) * ACT("H+")^ny
	16  mech_a = (10^logK25) * ACT("H+")^ny
	rem base term (neutral mechanism)
	23  Ea = 52200
	24  logK25 = -7.53
	rem 26  mech_b = (10^logK25) * (e^(-Ea/R*deltaT)) 
	26  mech_b = (10^logK25) 
	30  rate = mech_a + mech_b
	40  teta = 1 
	41  eta = 1
	42  Area = .001
	70  rate = Area * rate * (1 - SR("Dolomite(dis)")^teta)^eta
	80  moles = rate * time
	100 save moles
	  end
	END
-------------------------------------------
Beginning of initial solution calculations.
-------------------------------------------

Initial solution 101.	

-----------------------------Solution composition------------------------------

	Elements           Molality       Moles

	C(4)              1.228e-04   1.228e-04
	Ca                1.228e-04   1.228e-04
	Cl                5.491e-12   5.491e-12
	Mg                3.245e-12   3.245e-12

----------------------------Description of solution----------------------------

                                       pH  =   9.910      Charge balance
                                       pe  =   8.354    
                        Activity of water  =   1.000
                           Ionic strength  =   3.850e-04
                       Mass of water (kg)  =   1.000e+00
                 Total alkalinity (eq/kg)  =   2.456e-04
                       Total CO2 (mol/kg)  =   1.228e-04
                      Temperature (deg C)  =  25.00
                  Electrical balance (eq)  =   4.743e-19
 Percent error, 100*(Cat-|An|)/(Cat+|An|)  =   0.00
                               Iterations  =   4
                                  Total H  = 1.110126e+02
                                  Total O  = 5.550667e+01

----------------------------Distribution of species----------------------------

                                               Log       Log       Log    mole V
   Species          Molality    Activity  Molality  Activity     Gamma   cm3/mol

   OH-             8.318e-05   8.134e-05    -4.080    -4.090    -0.010     (0)  
   H+              1.259e-10   1.231e-10    -9.900    -9.910    -0.010      0.00
   H2O             5.551e+01   1.000e+00     1.744    -0.000     0.000     18.07
C(4)          1.228e-04
   HCO3-           8.317e-05   8.133e-05    -4.080    -4.090    -0.010     (0)  
   CO3-2           3.390e-05   3.099e-05    -4.470    -4.509    -0.039     (0)  
   CaCO3           5.564e-06   5.565e-06    -5.255    -5.255     0.000     (0)  
   CaHCO3+         1.134e-07   1.109e-07    -6.945    -6.955    -0.010     (0)  
   CO2             2.250e-08   2.250e-08    -7.648    -7.648     0.000     (0)  
   MgCO3           8.310e-14   8.311e-14   -13.080   -13.080     0.000     (0)  
   MgHCO3+         2.735e-15   2.674e-15   -14.563   -14.573    -0.010     (0)  
Ca            1.228e-04
   Ca+2            1.170e-04   1.069e-04    -3.932    -3.971    -0.039     (0)  
   CaCO3           5.564e-06   5.565e-06    -5.255    -5.255     0.000     (0)  
   CaOH+           1.474e-07   1.441e-07    -6.831    -6.841    -0.010     (0)  
   CaHCO3+         1.134e-07   1.109e-07    -6.945    -6.955    -0.010     (0)  
Cl            5.491e-12
   Cl-             5.491e-12   5.369e-12   -11.260   -11.270    -0.010     (0)  
H(0)          4.193e-40
   H2              2.097e-40   2.097e-40   -39.678   -39.678     0.000     (0)  
Mg            3.245e-12
   Mg+2            3.075e-12   2.811e-12   -11.512   -11.551    -0.039     (0)  
   MgOH+           8.479e-14   8.291e-14   -13.072   -13.081    -0.010     (0)  
   MgCO3           8.310e-14   8.311e-14   -13.080   -13.080     0.000     (0)  
   MgHCO3+         2.735e-15   2.674e-15   -14.563   -14.573    -0.010     (0)  
O(0)          1.896e-13
   O2              9.480e-14   9.481e-14   -13.023   -13.023     0.000     (0)  

------------------------------Saturation indices-------------------------------

	Phase               SI   log IAP   log K(298 K,   1 atm)

	Aragonite        -0.14     -8.48   -8.34  CaCO3
	Calcite           0.00     -8.48   -8.48  CaCO3
	CO2(g)           -6.18     -7.65   -1.47  CO2
	Dolomite(dis)    -7.45    -24.54  -17.09  CaMg(CO3)2
	H2(g)           -36.49      6.51   43.00  H2
	O2(g)           -10.13    -13.02   -2.89  O2


-----------------------------------------
Beginning of batch-reaction calculations.
-----------------------------------------

Reaction step 1.

Using solution 101.	
Using kinetics 101.	

Kinetics 101.	

	Time step: 100 seconds

	Rate name       Delta Moles Total Moles   Reactant        Coefficient

	Calcite           3.417e-12   1.222e-04   Calcite                   1
	Dolomite(dis)    -0.000e+00   0.000e+00   Dolomite(dis)             1

-----------------------------Solution composition------------------------------

	Elements           Molality       Moles

	C                 1.228e-04   1.228e-04
	Ca                1.228e-04   1.228e-04
	Cl                5.491e-12   5.491e-12
	Mg                3.245e-12   3.245e-12

----------------------------Description of solution----------------------------

                                       pH  =   9.910      Charge balance
                                       pe  =   8.357      Adjusted to redox equilibrium
                        Activity of water  =   1.000
                           Ionic strength  =   3.850e-04
                       Mass of water (kg)  =   1.000e+00
                 Total alkalinity (eq/kg)  =   2.456e-04
                       Total CO2 (mol/kg)  =   1.228e-04
                      Temperature (deg C)  =  25.00
                  Electrical balance (eq)  =   3.117e-19
 Percent error, 100*(Cat-|An|)/(Cat+|An|)  =   0.00
                               Iterations  =   3
                                  Total H  = 1.110126e+02
                                  Total O  = 5.550667e+01

----------------------------Distribution of species----------------------------

                                               Log       Log       Log    mole V
   Species          Molality    Activity  Molality  Activity     Gamma   cm3/mol

   OH-             8.318e-05   8.134e-05    -4.080    -4.090    -0.010     (0)  
   H+              1.259e-10   1.231e-10    -9.900    -9.910    -0.010      0.00
   H2O             5.551e+01   1.000e+00     1.744    -0.000     0.000     18.07
C(-4)         0.000e+00
   CH4             0.000e+00   0.000e+00  -129.389  -129.389     0.000     (0)  
C(4)          1.228e-04
   HCO3-           8.317e-05   8.133e-05    -4.080    -4.090    -0.010     (0)  
   CO3-2           3.390e-05   3.099e-05    -4.470    -4.509    -0.039     (0)  
   CaCO3           5.564e-06   5.565e-06    -5.255    -5.255     0.000     (0)  
   CaHCO3+         1.134e-07   1.109e-07    -6.945    -6.955    -0.010     (0)  
   CO2             2.250e-08   2.250e-08    -7.648    -7.648     0.000     (0)  
   MgCO3           8.310e-14   8.311e-14   -13.080   -13.080     0.000     (0)  
   MgHCO3+         2.735e-15   2.674e-15   -14.563   -14.573    -0.010     (0)  
Ca            1.228e-04
   Ca+2            1.170e-04   1.069e-04    -3.932    -3.971    -0.039     (0)  
   CaCO3           5.564e-06   5.565e-06    -5.255    -5.255     0.000     (0)  
   CaOH+           1.474e-07   1.441e-07    -6.831    -6.841    -0.010     (0)  
   CaHCO3+         1.134e-07   1.109e-07    -6.945    -6.955    -0.010     (0)  
Cl            5.491e-12
   Cl-             5.491e-12   5.369e-12   -11.260   -11.270    -0.010     (0)  
H(0)          4.150e-40
   H2              2.075e-40   2.075e-40   -39.683   -39.683     0.000     (0)  
Mg            3.245e-12
   Mg+2            3.075e-12   2.811e-12   -11.512   -11.551    -0.039     (0)  
   MgOH+           8.479e-14   8.291e-14   -13.072   -13.081    -0.010     (0)  
   MgCO3           8.310e-14   8.311e-14   -13.080   -13.080     0.000     (0)  
   MgHCO3+         2.735e-15   2.674e-15   -14.563   -14.573    -0.010     (0)  
O(0)          1.936e-13
   O2              9.681e-14   9.681e-14   -13.014   -13.014     0.000     (0)  

------------------------------Saturation indices-------------------------------

	Phase               SI   log IAP   log K(298 K,   1 atm)

	Aragonite        -0.14     -8.48   -8.34  CaCO3
	Calcite           0.00     -8.48   -8.48  CaCO3
	CH4(g)         -126.55   -129.39   -2.84  CH4
	CO2(g)           -6.18     -7.65   -1.47  CO2
	Dolomite(dis)    -7.45    -24.54  -17.09  CaMg(CO3)2
	H2(g)           -36.49      6.51   43.00  H2
	O2(g)           -10.12    -13.01   -2.89  O2


------------------
End of simulation.
------------------

--------------------------------------
Reading input data for simulation 102.
--------------------------------------

------------------------------
End of Run after 0.28 Seconds.
------------------------------

