   Input file: phinp.dat
  Output file: phinp.out
Database file: phreeqc.dat

------------------
Reading data base.
------------------

	SOLUTION_MASTER_SPECIES
	SOLUTION_SPECIES
	PHASES
	EXCHANGE_MASTER_SPECIES
	EXCHANGE_SPECIES
	SURFACE_MASTER_SPECIES
	SURFACE_SPECIES
	RATES
------------------------------------
Reading input data for simulation 1.
------------------------------------

	SOLUTION 1 #New Version 
	units mol/kgw 
	temp 25.000000 
	C(4)       1.000000000000e-10     # comp 
	Ca       1.000000000000e-10     # comp 
	Mg       1.000000000000e-03     # comp 
	Cl       2.000000000000e-03     # comp 
	pH       6.935753654820e+00 charge        # comp 
	pe       -6.545938224693e+00       # comp 
	EQUILIBRIUM_PHASES   1
	Calcite 0.000000000000e+00  0.000000000000e+00       # comp 
	PRINT
	 reset true
	 selected_output true
	SELECTED_OUTPUT
	file phout_sel.dat
	high_precision
	reset false
	USER_PUNCH
	heading  C(4) Ca Mg Cl pH  H+  pe  Calcite CO3-2 HCO3- a_HCO3-
	 10 PUNCH  TOT("C(4)"), TOT("Ca"), TOT("Mg"), TOT("Cl"),
	 20 PUNCH  -LA("H+"),  MOL("H+"),   -LA("e-")
	 40 PUNCH  EQUI("Calcite"),
	 90 PUNCH MOL("CO3-2")
	 100 PUNCH MOL("HCO3-")
	 110 PUNCH ACT("HCO3-")
	END
-------------------------------------------
Beginning of initial solution calculations.
-------------------------------------------

Initial solution 1.	

-----------------------------Solution composition------------------------------

	Elements           Molality       Moles

	C(4)              1.000e-10   1.000e-10
	Ca                1.000e-10   1.000e-10
	Cl                2.000e-03   2.000e-03
	Mg                1.000e-03   1.000e-03

----------------------------Description of solution----------------------------

                                       pH  =   6.944      Charge balance
                                       pe  =  -6.546    
                        Activity of water  =   1.000
                           Ionic strength  =   3.000e-03
                       Mass of water (kg)  =   1.000e+00
                 Total alkalinity (eq/kg)  =   2.000e-10
                       Total CO2 (mol/kg)  =   1.000e-10
                      Temperature (deg C)  =  25.00
                  Electrical balance (eq)  =   1.905e-16
 Percent error, 100*(Cat-|An|)/(Cat+|An|)  =   0.00
                               Iterations  =   4
                                  Total H  = 1.110127e+02
                                  Total O  = 5.550622e+01

----------------------------Distribution of species----------------------------

                                               Log       Log       Log    mole V
   Species          Molality    Activity  Molality  Activity     Gamma   cm3/mol

   H+              1.202e-07   1.137e-07    -6.920    -6.944    -0.024      0.00
   OH-             9.349e-08   8.800e-08    -7.029    -7.056    -0.026     (0)  
   H2O             5.551e+01   9.999e-01     1.744    -0.000     0.000     18.07
C(4)          1.000e-10
   HCO3-           7.993e-11   7.538e-11   -10.097   -10.123    -0.025     (0)  
   CO2             1.927e-11   1.928e-11   -10.715   -10.715     0.000     (0)  
   MgHCO3+         7.420e-13   6.988e-13   -12.130   -12.156    -0.026     (0)  
   CO3-2           3.929e-14   3.108e-14   -13.406   -13.508    -0.102     (0)  
   MgCO3           2.348e-14   2.350e-14   -13.629   -13.629     0.000     (0)  
   CaHCO3+         8.063e-20   7.604e-20   -19.094   -19.119    -0.025     (0)  
   CaCO3           4.125e-21   4.128e-21   -20.385   -20.384     0.000     (0)  
Ca            1.000e-10
   Ca+2            1.000e-10   7.906e-11   -10.000   -10.102    -0.102     (0)  
   CaOH+           1.225e-16   1.153e-16   -15.912   -15.938    -0.026     (0)  
   CaHCO3+         8.063e-20   7.604e-20   -19.094   -19.119    -0.025     (0)  
   CaCO3           4.125e-21   4.128e-21   -20.385   -20.384     0.000     (0)  
Cl            2.000e-03
   Cl-             2.000e-03   1.883e-03    -2.699    -2.725    -0.026     (0)  
H(0)          2.262e-04
   H2              1.131e-04   1.132e-04    -3.947    -3.946     0.000     (0)  
Mg            1.000e-03
   Mg+2            1.000e-03   7.923e-04    -3.000    -3.101    -0.101     (0)  
   MgOH+           2.685e-08   2.529e-08    -7.571    -7.597    -0.026     (0)  
   MgHCO3+         7.420e-13   6.988e-13   -12.130   -12.156    -0.026     (0)  
   MgCO3           2.348e-14   2.350e-14   -13.629   -13.629     0.000     (0)  
O(0)          0.000e+00
   O2              0.000e+00   0.000e+00   -84.488   -84.488     0.000     (0)  

------------------------------Saturation indices-------------------------------

	Phase               SI   log IAP   log K(298 K,   1 atm)

	Aragonite       -15.27    -23.61   -8.34  CaCO3
	Calcite         -15.13    -23.61   -8.48  CaCO3
	CO2(g)           -9.25    -10.71   -1.47  CO2
	Dolomite(dis)   -23.13    -40.22  -17.09  CaMg(CO3)2
	H2(g)            -0.75     42.24   43.00  H2
	O2(g)           -81.60    -84.49   -2.89  O2


-----------------------------------------
Beginning of batch-reaction calculations.
-----------------------------------------

Reaction step 1.

Using solution 1.	
Using pure phase assemblage 1.	

-------------------------------Phase assemblage--------------------------------

                                                      Moles in assemblage
Phase               SI  log IAP  log K(T, P)   Initial       Final       Delta

Calcite         -35.62   -44.10     -8.48    0.000e+00           0   0.000e+00

-----------------------------Solution composition------------------------------

	Elements           Molality       Moles

	C                 1.000e-10   1.000e-10
	Ca                1.000e-10   1.000e-10
	Cl                2.000e-03   2.000e-03
	Mg                1.000e-03   1.000e-03

----------------------------Description of solution----------------------------

                                       pH  =   6.944      Charge balance
                                       pe  =  -6.546      Adjusted to redox equilibrium
                        Activity of water  =   1.000
                           Ionic strength  =   3.000e-03
                       Mass of water (kg)  =   1.000e+00
                 Total alkalinity (eq/kg)  =   2.000e-10
                       Total CO2 (mol/kg)  =   3.235e-31
                      Temperature (deg C)  =  25.00
                  Electrical balance (eq)  =   1.925e-16
 Percent error, 100*(Cat-|An|)/(Cat+|An|)  =   0.00
                               Iterations  =   3
                                  Total H  = 1.110127e+02
                                  Total O  = 5.550622e+01

----------------------------Distribution of species----------------------------

                                               Log       Log       Log    mole V
   Species          Molality    Activity  Molality  Activity     Gamma   cm3/mol

   H+              1.202e-07   1.137e-07    -6.920    -6.944    -0.024      0.00
   OH-             9.352e-08   8.803e-08    -7.029    -7.055    -0.026     (0)  
   H2O             5.551e+01   9.999e-01     1.744    -0.000     0.000     18.07
C(-4)         1.000e-10
   CH4             1.000e-10   1.001e-10   -10.000   -10.000     0.000     (0)  
C(4)          3.235e-31
   HCO3-           2.586e-31   2.439e-31   -30.587   -30.613    -0.025     (0)  
   CO2             6.231e-32   6.236e-32   -31.205   -31.205     0.000     (0)  
   MgHCO3+         2.401e-33   2.261e-33   -32.620   -32.646    -0.026     (0)  
   CO3-2           1.272e-34   1.006e-34   -33.896   -33.997    -0.102     (0)  
   MgCO3           7.600e-35   7.605e-35   -34.119   -34.119     0.000     (0)  
   CaHCO3+         2.609e-40   2.460e-40   -39.584   -39.609    -0.025     (0)  
   CaCO3           0.000e+00   0.000e+00   -40.875   -40.874     0.000     (0)  
Ca            1.000e-10
   Ca+2            1.000e-10   7.906e-11   -10.000   -10.102    -0.102     (0)  
   CaOH+           1.225e-16   1.154e-16   -15.912   -15.938    -0.026     (0)  
   CaHCO3+         2.609e-40   2.460e-40   -39.584   -39.609    -0.025     (0)  
   CaCO3           0.000e+00   0.000e+00   -40.875   -40.874     0.000     (0)  
Cl            2.000e-03
   Cl-             2.000e-03   1.883e-03    -2.699    -2.725    -0.026     (0)  
H(0)          2.262e-04
   H2              1.131e-04   1.132e-04    -3.947    -3.946     0.000     (0)  
Mg            1.000e-03
   Mg+2            1.000e-03   7.923e-04    -3.000    -3.101    -0.101     (0)  
   MgOH+           2.686e-08   2.530e-08    -7.571    -7.597    -0.026     (0)  
   MgHCO3+         2.401e-33   2.261e-33   -32.620   -32.646    -0.026     (0)  
   MgCO3           7.600e-35   7.605e-35   -34.119   -34.119     0.000     (0)  
O(0)          0.000e+00
   O2              0.000e+00   0.000e+00   -84.488   -84.488     0.000     (0)  

------------------------------Saturation indices-------------------------------

	Phase               SI   log IAP   log K(298 K,   1 atm)

	Aragonite       -35.76    -44.10   -8.34  CaCO3
	Calcite         -35.62    -44.10   -8.48  CaCO3
	CH4(g)           -7.16    -10.00   -2.84  CH4
	CO2(g)          -29.74    -31.21   -1.47  CO2
	Dolomite(dis)   -64.11    -81.20  -17.09  CaMg(CO3)2
	H2(g)            -0.75     42.24   43.00  H2
	O2(g)           -81.60    -84.49   -2.89  O2


------------------
End of simulation.
------------------

------------------------------------
Reading input data for simulation 2.
------------------------------------

	SOLUTION 2 #New Version 
	units mol/kgw 
	temp 25.000000 
	C(4)       7.124819761578e-09     # comp 
	Ca       4.453185633683e-09     # comp 
	Mg       9.999987259362e-04     # comp 
	Cl       1.999991911190e-03     # comp 
	pH       6.944614743332e+00 charge        # comp 
	pe       -3.324523353484e+00       # comp 
	EQUILIBRIUM_PHASES   2
	Calcite 0.000000000000e+00  0.000000000000e+00       # comp 
	END
-------------------------------------------
Beginning of initial solution calculations.
-------------------------------------------

Initial solution 2.	

-----------------------------Solution composition------------------------------

	Elements           Molality       Moles

	C(4)              7.125e-09   7.125e-09
	Ca                4.453e-09   4.453e-09
	Cl                2.000e-03   2.000e-03
	Mg                1.000e-03   1.000e-03

----------------------------Description of solution----------------------------

                                       pH  =   6.959      Charge balance
                                       pe  =  -3.325    
                        Activity of water  =   1.000
                           Ionic strength  =   3.000e-03
                       Mass of water (kg)  =   1.000e+00
                 Total alkalinity (eq/kg)  =   1.445e-08
                       Total CO2 (mol/kg)  =   7.125e-09
                      Temperature (deg C)  =  25.00
                  Electrical balance (eq)  =   1.929e-16
 Percent error, 100*(Cat-|An|)/(Cat+|An|)  =   0.00
                               Iterations  =   4
                                  Total H  = 1.110124e+02
                                  Total O  = 5.550622e+01

----------------------------Distribution of species----------------------------

                                               Log       Log       Log    mole V
   Species          Molality    Activity  Molality  Activity     Gamma   cm3/mol

   H+              1.160e-07   1.098e-07    -6.935    -6.959    -0.024      0.00
   OH-             9.687e-08   9.118e-08    -7.014    -7.040    -0.026     (0)  
   H2O             5.551e+01   9.999e-01     1.744    -0.000     0.000     18.07
C(4)          7.125e-09
   HCO3-           5.733e-09   5.407e-09    -8.242    -8.267    -0.025     (0)  
   CO2             1.334e-09   1.335e-09    -8.875    -8.875     0.000     (0)  
   MgHCO3+         5.322e-11   5.013e-11   -10.274   -10.300    -0.026     (0)  
   CO3-2           2.920e-12   2.310e-12   -11.535   -11.636    -0.102     (0)  
   MgCO3           1.745e-12   1.746e-12   -11.758   -11.758     0.000     (0)  
   CaHCO3+         2.575e-16   2.429e-16   -15.589   -15.615    -0.025     (0)  
   CaCO3           1.365e-17   1.366e-17   -16.865   -16.865     0.000     (0)  
Ca            4.453e-09
   Ca+2            4.453e-09   3.521e-09    -8.351    -8.453    -0.102     (0)  
   CaOH+           5.651e-15   5.322e-15   -14.248   -14.274    -0.026     (0)  
   CaHCO3+         2.575e-16   2.429e-16   -15.589   -15.615    -0.025     (0)  
   CaCO3           1.365e-17   1.366e-17   -16.865   -16.865     0.000     (0)  
Cl            2.000e-03
   Cl-             2.000e-03   1.883e-03    -2.699    -2.725    -0.026     (0)  
H(0)          7.601e-11
   H2              3.801e-11   3.803e-11   -10.420   -10.420     0.000     (0)  
Mg            1.000e-03
   Mg+2            1.000e-03   7.923e-04    -3.000    -3.101    -0.101     (0)  
   MgOH+           2.782e-08   2.620e-08    -7.556    -7.582    -0.026     (0)  
   MgHCO3+         5.322e-11   5.013e-11   -10.274   -10.300    -0.026     (0)  
   MgCO3           1.745e-12   1.746e-12   -11.758   -11.758     0.000     (0)  
O(0)          0.000e+00
   O2              0.000e+00   0.000e+00   -71.541   -71.540     0.000     (0)  

------------------------------Saturation indices-------------------------------

	Phase               SI   log IAP   log K(298 K,   1 atm)

	Aragonite       -11.75    -20.09   -8.34  CaCO3
	Calcite         -11.61    -20.09   -8.48  CaCO3
	CO2(g)           -7.41     -8.87   -1.47  CO2
	Dolomite(dis)   -17.74    -34.83  -17.09  CaMg(CO3)2
	H2(g)            -7.23     35.77   43.00  H2
	O2(g)           -68.65    -71.54   -2.89  O2


-----------------------------------------
Beginning of batch-reaction calculations.
-----------------------------------------

Reaction step 1.

Using solution 2.	
Using pure phase assemblage 2.	

-------------------------------Phase assemblage--------------------------------

                                                      Moles in assemblage
Phase               SI  log IAP  log K(T, P)   Initial       Final       Delta

Calcite         -11.61   -20.09     -8.48    0.000e+00           0   0.000e+00

-----------------------------Solution composition------------------------------

	Elements           Molality       Moles

	C                 7.125e-09   7.125e-09
	Ca                4.453e-09   4.453e-09
	Cl                2.000e-03   2.000e-03
	Mg                1.000e-03   1.000e-03

----------------------------Description of solution----------------------------

                                       pH  =   6.959      Charge balance
                                       pe  =  -3.324      Adjusted to redox equilibrium
                        Activity of water  =   1.000
                           Ionic strength  =   3.000e-03
                       Mass of water (kg)  =   1.000e+00
                 Total alkalinity (eq/kg)  =   1.445e-08
                       Total CO2 (mol/kg)  =   7.125e-09
                      Temperature (deg C)  =  25.00
                  Electrical balance (eq)  =   2.026e-16
 Percent error, 100*(Cat-|An|)/(Cat+|An|)  =   0.00
                               Iterations  =   1
                                  Total H  = 1.110124e+02
                                  Total O  = 5.550622e+01

----------------------------Distribution of species----------------------------

                                               Log       Log       Log    mole V
   Species          Molality    Activity  Molality  Activity     Gamma   cm3/mol

   H+              1.160e-07   1.098e-07    -6.935    -6.959    -0.024      0.00
   OH-             9.687e-08   9.118e-08    -7.014    -7.040    -0.026     (0)  
   H2O             5.551e+01   9.999e-01     1.744    -0.000     0.000     18.07
C(-4)         2.695e-14
   CH4             2.695e-14   2.697e-14   -13.569   -13.569     0.000     (0)  
C(4)          7.125e-09
   HCO3-           5.733e-09   5.407e-09    -8.242    -8.267    -0.025     (0)  
   CO2             1.334e-09   1.335e-09    -8.875    -8.875     0.000     (0)  
   MgHCO3+         5.322e-11   5.013e-11   -10.274   -10.300    -0.026     (0)  
   CO3-2           2.920e-12   2.310e-12   -11.535   -11.636    -0.102     (0)  
   MgCO3           1.745e-12   1.746e-12   -11.758   -11.758     0.000     (0)  
   CaHCO3+         2.575e-16   2.429e-16   -15.589   -15.615    -0.025     (0)  
   CaCO3           1.365e-17   1.366e-17   -16.865   -16.865     0.000     (0)  
Ca            4.453e-09
   Ca+2            4.453e-09   3.521e-09    -8.351    -8.453    -0.102     (0)  
   CaOH+           5.651e-15   5.322e-15   -14.248   -14.274    -0.026     (0)  
   CaHCO3+         2.575e-16   2.429e-16   -15.589   -15.615    -0.025     (0)  
   CaCO3           1.365e-17   1.366e-17   -16.865   -16.865     0.000     (0)  
Cl            2.000e-03
   Cl-             2.000e-03   1.883e-03    -2.699    -2.725    -0.026     (0)  
H(0)          7.578e-11
   H2              3.789e-11   3.791e-11   -10.421   -10.421     0.000     (0)  
Mg            1.000e-03
   Mg+2            1.000e-03   7.923e-04    -3.000    -3.101    -0.101     (0)  
   MgOH+           2.782e-08   2.620e-08    -7.556    -7.582    -0.026     (0)  
   MgHCO3+         5.322e-11   5.013e-11   -10.274   -10.300    -0.026     (0)  
   MgCO3           1.745e-12   1.746e-12   -11.758   -11.758     0.000     (0)  
O(0)          0.000e+00
   O2              0.000e+00   0.000e+00   -71.538   -71.538     0.000     (0)  

------------------------------Saturation indices-------------------------------

	Phase               SI   log IAP   log K(298 K,   1 atm)

	Aragonite       -11.75    -20.09   -8.34  CaCO3
	Calcite         -11.61    -20.09   -8.48  CaCO3
	CH4(g)          -10.73    -13.57   -2.84  CH4
	CO2(g)           -7.41     -8.87   -1.47  CO2
	Dolomite(dis)   -17.74    -34.83  -17.09  CaMg(CO3)2
	H2(g)            -7.23     35.77   43.00  H2
	O2(g)           -68.65    -71.54   -2.89  O2


------------------
End of simulation.
------------------

------------------------------------
Reading input data for simulation 3.
------------------------------------

	SOLUTION 3 #New Version 
	units mol/kgw 
	temp 25.000000 
	C(4)       2.082430352169e-08     # comp 
	Ca       1.279756516435e-08     # comp 
	Mg       9.999964548308e-04     # comp 
	Cl       1.999976657416e-03     # comp 
	pH       6.972740862698e+00 charge        # comp 
	pe       1.111588229501e+01       # comp 
	EQUILIBRIUM_PHASES   3
	Calcite 0.000000000000e+00  0.000000000000e+00       # comp 
	END
-------------------------------------------
Beginning of initial solution calculations.
-------------------------------------------

Initial solution 3.	

-----------------------------Solution composition------------------------------

	Elements           Molality       Moles

	C(4)              2.082e-08   2.082e-08
	Ca                1.280e-08   1.280e-08
	Cl                2.000e-03   2.000e-03
	Mg                1.000e-03   1.000e-03

----------------------------Description of solution----------------------------

                                       pH  =   6.988      Charge balance
                                       pe  =  11.116    
                        Activity of water  =   1.000
                           Ionic strength  =   3.000e-03
                       Mass of water (kg)  =   1.000e+00
                 Total alkalinity (eq/kg)  =   4.185e-08
                       Total CO2 (mol/kg)  =   2.082e-08
                      Temperature (deg C)  =  25.00
                  Electrical balance (eq)  =   1.912e-16
 Percent error, 100*(Cat-|An|)/(Cat+|An|)  =   0.00
                               Iterations  =   4
                                  Total H  = 1.110124e+02
                                  Total O  = 5.550622e+01

----------------------------Distribution of species----------------------------

                                               Log       Log       Log    mole V
   Species          Molality    Activity  Molality  Activity     Gamma   cm3/mol

   H+              1.086e-07   1.027e-07    -6.964    -6.988    -0.024      0.00
   OH-             1.035e-07   9.745e-08    -6.985    -7.011    -0.026     (0)  
   H2O             5.551e+01   9.999e-01     1.744    -0.000     0.000     18.07
C(4)          2.082e-08
   HCO3-           1.696e-08   1.599e-08    -7.771    -7.796    -0.025     (0)  
   CO2             3.692e-09   3.694e-09    -8.433    -8.432     0.000     (0)  
   MgHCO3+         1.574e-10   1.483e-10    -9.803    -9.829    -0.026     (0)  
   CO3-2           9.232e-12   7.302e-12   -11.035   -11.137    -0.102     (0)  
   MgCO3           5.517e-12   5.521e-12   -11.258   -11.258     0.000     (0)  
   CaHCO3+         2.189e-15   2.065e-15   -14.660   -14.685    -0.025     (0)  
   CaCO3           1.240e-16   1.241e-16   -15.906   -15.906     0.000     (0)  
Ca            1.280e-08
   Ca+2            1.280e-08   1.012e-08    -7.893    -7.995    -0.102     (0)  
   CaOH+           1.736e-14   1.635e-14   -13.761   -13.787    -0.026     (0)  
   CaHCO3+         2.189e-15   2.065e-15   -14.660   -14.685    -0.025     (0)  
   CaCO3           1.240e-16   1.241e-16   -15.906   -15.906     0.000     (0)  
Cl            2.000e-03
   Cl-             2.000e-03   1.883e-03    -2.699    -2.725    -0.026     (0)  
H(0)          8.755e-40
   H2              4.378e-40   4.381e-40   -39.359   -39.358     0.000     (0)  
Mg            1.000e-03
   Mg+2            1.000e-03   7.923e-04    -3.000    -3.101    -0.101     (0)  
   MgOH+           2.973e-08   2.800e-08    -7.527    -7.553    -0.026     (0)  
   MgHCO3+         1.574e-10   1.483e-10    -9.803    -9.829    -0.026     (0)  
   MgCO3           5.517e-12   5.521e-12   -11.258   -11.258     0.000     (0)  
O(0)          4.341e-14
   O2              2.171e-14   2.172e-14   -13.663   -13.663     0.000     (0)  

------------------------------Saturation indices-------------------------------

	Phase               SI   log IAP   log K(298 K,   1 atm)

	Aragonite       -10.80    -19.13   -8.34  CaCO3
	Calcite         -10.65    -19.13   -8.48  CaCO3
	CO2(g)           -6.96     -8.43   -1.47  CO2
	Dolomite(dis)   -16.28    -33.37  -17.09  CaMg(CO3)2
	H2(g)           -36.17      6.83   43.00  H2
	O2(g)           -10.77    -13.66   -2.89  O2


-----------------------------------------
Beginning of batch-reaction calculations.
-----------------------------------------

Reaction step 1.

Using solution 3.	
Using pure phase assemblage 3.	

-------------------------------Phase assemblage--------------------------------

                                                      Moles in assemblage
Phase               SI  log IAP  log K(T, P)   Initial       Final       Delta

Calcite         -10.65   -19.13     -8.48    0.000e+00           0   0.000e+00

-----------------------------Solution composition------------------------------

	Elements           Molality       Moles

	C                 2.082e-08   2.082e-08
	Ca                1.280e-08   1.280e-08
	Cl                2.000e-03   2.000e-03
	Mg                1.000e-03   1.000e-03

----------------------------Description of solution----------------------------

                                       pH  =   6.988      Charge balance
                                       pe  =  11.120      Adjusted to redox equilibrium
                        Activity of water  =   1.000
                           Ionic strength  =   3.000e-03
                       Mass of water (kg)  =   1.000e+00
                 Total alkalinity (eq/kg)  =   4.185e-08
                       Total CO2 (mol/kg)  =   2.082e-08
                      Temperature (deg C)  =  25.00
                  Electrical balance (eq)  =   2.018e-16
 Percent error, 100*(Cat-|An|)/(Cat+|An|)  =   0.00
                               Iterations  =   1
                                  Total H  = 1.110124e+02
                                  Total O  = 5.550622e+01

----------------------------Distribution of species----------------------------

                                               Log       Log       Log    mole V
   Species          Molality    Activity  Molality  Activity     Gamma   cm3/mol

   H+              1.086e-07   1.027e-07    -6.964    -6.988    -0.024      0.00
   OH-             1.035e-07   9.745e-08    -6.985    -7.011    -0.026     (0)  
   H2O             5.551e+01   9.999e-01     1.744    -0.000     0.000     18.07
C(-4)         0.000e+00
   CH4             0.000e+00   0.000e+00  -128.912  -128.912     0.000     (0)  
C(4)          2.082e-08
   HCO3-           1.696e-08   1.599e-08    -7.771    -7.796    -0.025     (0)  
   CO2             3.692e-09   3.694e-09    -8.433    -8.432     0.000     (0)  
   MgHCO3+         1.574e-10   1.483e-10    -9.803    -9.829    -0.026     (0)  
   CO3-2           9.232e-12   7.302e-12   -11.035   -11.137    -0.102     (0)  
   MgCO3           5.517e-12   5.521e-12   -11.258   -11.258     0.000     (0)  
   CaHCO3+         2.189e-15   2.065e-15   -14.660   -14.685    -0.025     (0)  
   CaCO3           1.240e-16   1.241e-16   -15.906   -15.906     0.000     (0)  
Ca            1.280e-08
   Ca+2            1.280e-08   1.012e-08    -7.893    -7.995    -0.102     (0)  
   CaOH+           1.736e-14   1.635e-14   -13.761   -13.787    -0.026     (0)  
   CaHCO3+         2.189e-15   2.065e-15   -14.660   -14.685    -0.025     (0)  
   CaCO3           1.240e-16   1.241e-16   -15.906   -15.906     0.000     (0)  
Cl            2.000e-03
   Cl-             2.000e-03   1.883e-03    -2.699    -2.725    -0.026     (0)  
H(0)          8.578e-40
   H2              4.289e-40   4.292e-40   -39.368   -39.367     0.000     (0)  
Mg            1.000e-03
   Mg+2            1.000e-03   7.923e-04    -3.000    -3.101    -0.101     (0)  
   MgOH+           2.973e-08   2.800e-08    -7.527    -7.553    -0.026     (0)  
   MgHCO3+         1.574e-10   1.483e-10    -9.803    -9.829    -0.026     (0)  
   MgCO3           5.517e-12   5.521e-12   -11.258   -11.258     0.000     (0)  
O(0)          4.523e-14
   O2              2.261e-14   2.263e-14   -13.646   -13.645     0.000     (0)  

------------------------------Saturation indices-------------------------------

	Phase               SI   log IAP   log K(298 K,   1 atm)

	Aragonite       -10.80    -19.13   -8.34  CaCO3
	Calcite         -10.65    -19.13   -8.48  CaCO3
	CH4(g)         -126.07   -128.91   -2.84  CH4
	CO2(g)           -6.96     -8.43   -1.47  CO2
	Dolomite(dis)   -16.28    -33.37  -17.09  CaMg(CO3)2
	H2(g)           -36.18      6.82   43.00  H2
	O2(g)           -10.75    -13.65   -2.89  O2


------------------
End of simulation.
------------------

------------------------------------
Reading input data for simulation 4.
------------------------------------

	SOLUTION 4 #New Version 
	units mol/kgw 
	temp 25.000000 
	C(4)       4.558672620976e-08     # comp 
	Ca       2.780215999239e-08     # comp 
	Mg       9.999928540693e-04     # comp 
	Cl       1.999949937595e-03     # comp 
	pH       7.021168783611e+00 charge        # comp 
	pe       1.109469022943e+01       # comp 
	EQUILIBRIUM_PHASES   4
	Calcite 0.000000000000e+00  0.000000000000e+00       # comp 
	END
-------------------------------------------
Beginning of initial solution calculations.
-------------------------------------------

Initial solution 4.	

-----------------------------Solution composition------------------------------

	Elements           Molality       Moles

	C(4)              4.559e-08   4.559e-08
	Ca                2.780e-08   2.780e-08
	Cl                2.000e-03   2.000e-03
	Mg                1.000e-03   1.000e-03

----------------------------Description of solution----------------------------

                                       pH  =   7.039      Charge balance
                                       pe  =  11.095    
                        Activity of water  =   1.000
                           Ionic strength  =   3.000e-03
                       Mass of water (kg)  =   1.000e+00
                 Total alkalinity (eq/kg)  =   9.137e-08
                       Total CO2 (mol/kg)  =   4.559e-08
                      Temperature (deg C)  =  25.00
                  Electrical balance (eq)  =   1.914e-16
 Percent error, 100*(Cat-|An|)/(Cat+|An|)  =   0.00
                               Iterations  =   4
                                  Total H  = 1.110124e+02
                                  Total O  = 5.550622e+01

----------------------------Distribution of species----------------------------

                                               Log       Log       Log    mole V
   Species          Molality    Activity  Molality  Activity     Gamma   cm3/mol

   OH-             1.163e-07   1.095e-07    -6.934    -6.961    -0.026     (0)  
   H+              9.663e-08   9.143e-08    -7.015    -7.039    -0.024      0.00
   H2O             5.551e+01   9.999e-01     1.744    -0.000     0.000     18.07
C(4)          4.559e-08
   HCO3-           3.786e-08   3.571e-08    -7.422    -7.447    -0.025     (0)  
   CO2             7.335e-09   7.341e-09    -8.135    -8.134     0.000     (0)  
   MgHCO3+         3.515e-10   3.310e-10    -9.454    -9.480    -0.026     (0)  
   CO3-2           2.316e-11   1.831e-11   -10.635   -10.737    -0.102     (0)  
   MgCO3           1.384e-11   1.385e-11   -10.859   -10.859     0.000     (0)  
   CaHCO3+         1.062e-14   1.001e-14   -13.974   -13.999    -0.025     (0)  
   CaCO3           6.758e-16   6.763e-16   -15.170   -15.170     0.000     (0)  
Ca            2.780e-08
   Ca+2            2.780e-08   2.198e-08    -7.556    -7.658    -0.102     (0)  
   CaOH+           4.236e-14   3.990e-14   -13.373   -13.399    -0.026     (0)  
   CaHCO3+         1.062e-14   1.001e-14   -13.974   -13.999    -0.025     (0)  
   CaCO3           6.758e-16   6.763e-16   -15.170   -15.170     0.000     (0)  
Cl            2.000e-03
   Cl-             2.000e-03   1.883e-03    -2.699    -2.725    -0.026     (0)  
H(0)          7.648e-40
   H2              3.824e-40   3.826e-40   -39.418   -39.417     0.000     (0)  
Mg            1.000e-03
   Mg+2            1.000e-03   7.923e-04    -3.000    -3.101    -0.101     (0)  
   MgOH+           3.341e-08   3.146e-08    -7.476    -7.502    -0.026     (0)  
   MgHCO3+         3.515e-10   3.310e-10    -9.454    -9.480    -0.026     (0)  
   MgCO3           1.384e-11   1.385e-11   -10.859   -10.859     0.000     (0)  
O(0)          5.690e-14
   O2              2.845e-14   2.847e-14   -13.546   -13.546     0.000     (0)  

------------------------------Saturation indices-------------------------------

	Phase               SI   log IAP   log K(298 K,   1 atm)

	Aragonite       -10.06    -18.40   -8.34  CaCO3
	Calcite          -9.92    -18.40   -8.48  CaCO3
	CO2(g)           -6.67     -8.13   -1.47  CO2
	Dolomite(dis)   -15.14    -32.23  -17.09  CaMg(CO3)2
	H2(g)           -36.23      6.77   43.00  H2
	O2(g)           -10.65    -13.55   -2.89  O2


-----------------------------------------
Beginning of batch-reaction calculations.
-----------------------------------------

Reaction step 1.

Using solution 4.	
Using pure phase assemblage 4.	

-------------------------------Phase assemblage--------------------------------

                                                      Moles in assemblage
Phase               SI  log IAP  log K(T, P)   Initial       Final       Delta

Calcite          -9.92   -18.40     -8.48    0.000e+00           0   0.000e+00

-----------------------------Solution composition------------------------------

	Elements           Molality       Moles

	C                 4.559e-08   4.559e-08
	Ca                2.780e-08   2.780e-08
	Cl                2.000e-03   2.000e-03
	Mg                1.000e-03   1.000e-03

----------------------------Description of solution----------------------------

                                       pH  =   7.039      Charge balance
                                       pe  =  11.080      Adjusted to redox equilibrium
                        Activity of water  =   1.000
                           Ionic strength  =   3.000e-03
                       Mass of water (kg)  =   1.000e+00
                 Total alkalinity (eq/kg)  =   9.137e-08
                       Total CO2 (mol/kg)  =   4.559e-08
                      Temperature (deg C)  =  25.00
                  Electrical balance (eq)  =   2.019e-16
 Percent error, 100*(Cat-|An|)/(Cat+|An|)  =   0.00
                               Iterations  =   1
                                  Total H  = 1.110124e+02
                                  Total O  = 5.550622e+01

----------------------------Distribution of species----------------------------

                                               Log       Log       Log    mole V
   Species          Molality    Activity  Molality  Activity     Gamma   cm3/mol

   OH-             1.163e-07   1.095e-07    -6.934    -6.961    -0.026     (0)  
   H+              9.663e-08   9.143e-08    -7.015    -7.039    -0.024      0.00
   H2O             5.551e+01   9.999e-01     1.744    -0.000     0.000     18.07
C(-4)         0.000e+00
   CH4             0.000e+00   0.000e+00  -128.693  -128.693     0.000     (0)  
C(4)          4.559e-08
   HCO3-           3.786e-08   3.571e-08    -7.422    -7.447    -0.025     (0)  
   CO2             7.335e-09   7.341e-09    -8.135    -8.134     0.000     (0)  
   MgHCO3+         3.515e-10   3.310e-10    -9.454    -9.480    -0.026     (0)  
   CO3-2           2.316e-11   1.831e-11   -10.635   -10.737    -0.102     (0)  
   MgCO3           1.384e-11   1.385e-11   -10.859   -10.859     0.000     (0)  
   CaHCO3+         1.062e-14   1.001e-14   -13.974   -13.999    -0.025     (0)  
   CaCO3           6.758e-16   6.763e-16   -15.170   -15.170     0.000     (0)  
Ca            2.780e-08
   Ca+2            2.780e-08   2.198e-08    -7.556    -7.658    -0.102     (0)  
   CaOH+           4.236e-14   3.990e-14   -13.373   -13.399    -0.026     (0)  
   CaHCO3+         1.062e-14   1.001e-14   -13.974   -13.999    -0.025     (0)  
   CaCO3           6.758e-16   6.763e-16   -15.170   -15.170     0.000     (0)  
Cl            2.000e-03
   Cl-             2.000e-03   1.883e-03    -2.699    -2.725    -0.026     (0)  
H(0)          8.194e-40
   H2              4.097e-40   4.100e-40   -39.388   -39.387     0.000     (0)  
Mg            1.000e-03
   Mg+2            1.000e-03   7.923e-04    -3.000    -3.101    -0.101     (0)  
   MgOH+           3.341e-08   3.146e-08    -7.476    -7.502    -0.026     (0)  
   MgHCO3+         3.515e-10   3.310e-10    -9.454    -9.480    -0.026     (0)  
   MgCO3           1.384e-11   1.385e-11   -10.859   -10.859     0.000     (0)  
O(0)          4.956e-14
   O2              2.478e-14   2.480e-14   -13.606   -13.606     0.000     (0)  

------------------------------Saturation indices-------------------------------

	Phase               SI   log IAP   log K(298 K,   1 atm)

	Aragonite       -10.06    -18.40   -8.34  CaCO3
	Calcite          -9.92    -18.40   -8.48  CaCO3
	CH4(g)         -125.85   -128.69   -2.84  CH4
	CO2(g)           -6.67     -8.13   -1.47  CO2
	Dolomite(dis)   -15.14    -32.23  -17.09  CaMg(CO3)2
	H2(g)           -36.20      6.80   43.00  H2
	O2(g)           -10.71    -13.61   -2.89  O2


------------------
End of simulation.
------------------

------------------------------------
Reading input data for simulation 5.
------------------------------------

	SOLUTION 5 #New Version 
	units mol/kgw 
	temp 25.000000 
	C(4)       8.858817302226e-08     # comp 
	Ca       5.368462622411e-08     # comp 
	Mg       9.999877192177e-04     # comp 
	Cl       1.999905425486e-03     # comp 
	pH       7.097932889390e+00 charge        # comp 
	pe       -3.499769215969e+00       # comp 
	EQUILIBRIUM_PHASES   5
	Calcite 0.000000000000e+00  0.000000000000e+00       # comp 
	END
-------------------------------------------
Beginning of initial solution calculations.
-------------------------------------------

Initial solution 5.	

-----------------------------Solution composition------------------------------

	Elements           Molality       Moles

	C(4)              8.859e-08   8.859e-08
	Ca                5.368e-08   5.368e-08
	Cl                2.000e-03   2.000e-03
	Mg                1.000e-03   1.000e-03

----------------------------Description of solution----------------------------

                                       pH  =   7.121      Charge balance
                                       pe  =  -3.500    
                        Activity of water  =   1.000
                           Ionic strength  =   3.000e-03
                       Mass of water (kg)  =   1.000e+00
                 Total alkalinity (eq/kg)  =   1.774e-07
                       Total CO2 (mol/kg)  =   8.859e-08
                      Temperature (deg C)  =  25.00
                  Electrical balance (eq)  =   1.915e-16
 Percent error, 100*(Cat-|An|)/(Cat+|An|)  =   0.00
                               Iterations  =   4
                                  Total H  = 1.110124e+02
                                  Total O  = 5.550622e+01

----------------------------Distribution of species----------------------------

                                               Log       Log       Log    mole V
   Species          Molality    Activity  Molality  Activity     Gamma   cm3/mol

   OH-             1.405e-07   1.322e-07    -6.852    -6.879    -0.026     (0)  
   H+              8.000e-08   7.570e-08    -7.097    -7.121    -0.024      0.00
   H2O             5.551e+01   9.999e-01     1.744    -0.000     0.000     18.07
C(4)          8.859e-08
   HCO3-           7.566e-08   7.135e-08    -7.121    -7.147    -0.025     (0)  
   CO2             1.214e-08   1.214e-08    -7.916    -7.916     0.000     (0)  
   MgHCO3+         7.023e-10   6.615e-10    -9.153    -9.179    -0.026     (0)  
   CO3-2           5.589e-11   4.421e-11   -10.253   -10.355    -0.102     (0)  
   MgCO3           3.340e-11   3.342e-11   -10.476   -10.476     0.000     (0)  
   CaHCO3+         4.097e-14   3.864e-14   -13.388   -13.413    -0.025     (0)  
   CaCO3           3.150e-15   3.152e-15   -14.502   -14.501     0.000     (0)  
Ca            5.368e-08
   Ca+2            5.368e-08   4.244e-08    -7.270    -7.372    -0.102     (0)  
   CaOH+           9.880e-14   9.305e-14   -13.005   -13.031    -0.026     (0)  
   CaHCO3+         4.097e-14   3.864e-14   -13.388   -13.413    -0.025     (0)  
   CaCO3           3.150e-15   3.152e-15   -14.502   -14.501     0.000     (0)  
Cl            2.000e-03
   Cl-             2.000e-03   1.883e-03    -2.699    -2.725    -0.026     (0)  
H(0)          8.098e-11
   H2              4.049e-11   4.052e-11   -10.393   -10.392     0.000     (0)  
Mg            1.000e-03
   Mg+2            9.999e-04   7.923e-04    -3.000    -3.101    -0.101     (0)  
   MgOH+           4.035e-08   3.800e-08    -7.394    -7.420    -0.026     (0)  
   MgHCO3+         7.023e-10   6.615e-10    -9.153    -9.179    -0.026     (0)  
   MgCO3           3.340e-11   3.342e-11   -10.476   -10.476     0.000     (0)  
O(0)          0.000e+00
   O2              0.000e+00   0.000e+00   -71.596   -71.595     0.000     (0)  

------------------------------Saturation indices-------------------------------

	Phase               SI   log IAP   log K(298 K,   1 atm)

	Aragonite        -9.39    -17.73   -8.34  CaCO3
	Calcite          -9.25    -17.73   -8.48  CaCO3
	CO2(g)           -6.45     -7.92   -1.47  CO2
	Dolomite(dis)   -14.09    -31.18  -17.09  CaMg(CO3)2
	H2(g)            -7.20     35.80   43.00  H2
	O2(g)           -68.70    -71.60   -2.89  O2


-----------------------------------------
Beginning of batch-reaction calculations.
-----------------------------------------

Reaction step 1.

Using solution 5.	
Using pure phase assemblage 5.	

-------------------------------Phase assemblage--------------------------------

                                                      Moles in assemblage
Phase               SI  log IAP  log K(T, P)   Initial       Final       Delta

Calcite          -9.25   -17.73     -8.48    0.000e+00           0   0.000e+00

-----------------------------Solution composition------------------------------

	Elements           Molality       Moles

	C                 8.859e-08   8.859e-08
	Ca                5.368e-08   5.368e-08
	Cl                2.000e-03   2.000e-03
	Mg                1.000e-03   1.000e-03

----------------------------Description of solution----------------------------

                                       pH  =   7.121      Charge balance
                                       pe  =  -3.494      Adjusted to redox equilibrium
                        Activity of water  =   1.000
                           Ionic strength  =   3.000e-03
                       Mass of water (kg)  =   1.000e+00
                 Total alkalinity (eq/kg)  =   1.774e-07
                       Total CO2 (mol/kg)  =   8.859e-08
                      Temperature (deg C)  =  25.00
                  Electrical balance (eq)  =   1.923e-16
 Percent error, 100*(Cat-|An|)/(Cat+|An|)  =   0.00
                               Iterations  =   2
                                  Total H  = 1.110124e+02
                                  Total O  = 5.550622e+01

----------------------------Distribution of species----------------------------

                                               Log       Log       Log    mole V
   Species          Molality    Activity  Molality  Activity     Gamma   cm3/mol

   OH-             1.405e-07   1.322e-07    -6.852    -6.879    -0.026     (0)  
   H+              8.000e-08   7.569e-08    -7.097    -7.121    -0.024      0.00
   H2O             5.551e+01   9.999e-01     1.744    -0.000     0.000     18.07
C(-4)         2.854e-13
   CH4             2.854e-13   2.856e-13   -12.545   -12.544     0.000     (0)  
C(4)          8.859e-08
   HCO3-           7.566e-08   7.135e-08    -7.121    -7.147    -0.025     (0)  
   CO2             1.214e-08   1.214e-08    -7.916    -7.916     0.000     (0)  
   MgHCO3+         7.023e-10   6.615e-10    -9.153    -9.179    -0.026     (0)  
   CO3-2           5.589e-11   4.421e-11   -10.253   -10.355    -0.102     (0)  
   MgCO3           3.340e-11   3.342e-11   -10.476   -10.476     0.000     (0)  
   CaHCO3+         4.097e-14   3.864e-14   -13.388   -13.413    -0.025     (0)  
   CaCO3           3.150e-15   3.152e-15   -14.502   -14.501     0.000     (0)  
Ca            5.368e-08
   Ca+2            5.368e-08   4.244e-08    -7.270    -7.372    -0.102     (0)  
   CaOH+           9.880e-14   9.305e-14   -13.005   -13.031    -0.026     (0)  
   CaHCO3+         4.097e-14   3.864e-14   -13.388   -13.413    -0.025     (0)  
   CaCO3           3.150e-15   3.152e-15   -14.502   -14.501     0.000     (0)  
Cl            2.000e-03
   Cl-             2.000e-03   1.883e-03    -2.699    -2.725    -0.026     (0)  
H(0)          7.870e-11
   H2              3.935e-11   3.938e-11   -10.405   -10.405     0.000     (0)  
Mg            1.000e-03
   Mg+2            9.999e-04   7.923e-04    -3.000    -3.101    -0.101     (0)  
   MgOH+           4.035e-08   3.800e-08    -7.394    -7.420    -0.026     (0)  
   MgHCO3+         7.023e-10   6.615e-10    -9.153    -9.179    -0.026     (0)  
   MgCO3           3.340e-11   3.342e-11   -10.476   -10.476     0.000     (0)  
O(0)          0.000e+00
   O2              0.000e+00   0.000e+00   -71.571   -71.571     0.000     (0)  

------------------------------Saturation indices-------------------------------

	Phase               SI   log IAP   log K(298 K,   1 atm)

	Aragonite        -9.39    -17.73   -8.34  CaCO3
	Calcite          -9.25    -17.73   -8.48  CaCO3
	CH4(g)           -9.70    -12.54   -2.84  CH4
	CO2(g)           -6.45     -7.92   -1.47  CO2
	Dolomite(dis)   -14.09    -31.18  -17.09  CaMg(CO3)2
	H2(g)            -7.21     35.79   43.00  H2
	O2(g)           -68.68    -71.57   -2.89  O2


------------------
End of simulation.
------------------

------------------------------------
Reading input data for simulation 6.
------------------------------------

	SOLUTION 6 #New Version 
	units mol/kgw 
	temp 25.000000 
	C(4)       1.612001434409e-07     # comp 
	Ca       9.704299603718e-08     # comp 
	Mg       9.999812693451e-04     # comp 
	Cl       1.999834012476e-03     # comp 
	pH       7.209270016192e+00 charge        # comp 
	pe       -3.627574469628e+00       # comp 
	EQUILIBRIUM_PHASES   6
	Calcite 0.000000000000e+00  0.000000000000e+00       # comp 
	END
-------------------------------------------
Beginning of initial solution calculations.
-------------------------------------------

Initial solution 6.	

-----------------------------Solution composition------------------------------

	Elements           Molality       Moles

	C(4)              1.612e-07   1.612e-07
	Ca                9.704e-08   9.704e-08
	Cl                2.000e-03   2.000e-03
	Mg                1.000e-03   1.000e-03

----------------------------Description of solution----------------------------

                                       pH  =   7.242      Charge balance
                                       pe  =  -3.628    
                        Activity of water  =   1.000
                           Ionic strength  =   3.000e-03
                       Mass of water (kg)  =   1.000e+00
                 Total alkalinity (eq/kg)  =   3.226e-07
                       Total CO2 (mol/kg)  =   1.612e-07
                      Temperature (deg C)  =  25.00
                  Electrical balance (eq)  =   1.938e-16
 Percent error, 100*(Cat-|An|)/(Cat+|An|)  =   0.00
                               Iterations  =   4
                                  Total H  = 1.110124e+02
                                  Total O  = 5.550622e+01

----------------------------Distribution of species----------------------------

                                               Log       Log       Log    mole V
   Species          Molality    Activity  Molality  Activity     Gamma   cm3/mol

   OH-             1.857e-07   1.748e-07    -6.731    -6.758    -0.026     (0)  
   H+              6.054e-08   5.727e-08    -7.218    -7.242    -0.024      0.00
   H2O             5.551e+01   9.999e-01     1.744    -0.000     0.000     18.07
C(4)          1.612e-07
   HCO3-           1.424e-07   1.343e-07    -6.847    -6.872    -0.025     (0)  
   CO2             1.728e-08   1.729e-08    -7.762    -7.762     0.000     (0)  
   MgHCO3+         1.322e-09   1.245e-09    -8.879    -8.905    -0.026     (0)  
   CO3-2           1.390e-10   1.099e-10    -9.857    -9.959    -0.102     (0)  
   MgCO3           8.306e-11   8.312e-11   -10.081   -10.080     0.000     (0)  
   CaHCO3+         1.394e-13   1.314e-13   -12.856   -12.881    -0.025     (0)  
   CaCO3           1.416e-14   1.417e-14   -13.849   -13.849     0.000     (0)  
Ca            9.704e-08
   Ca+2            9.704e-08   7.672e-08    -7.013    -7.115    -0.102     (0)  
   CaOH+           2.360e-13   2.223e-13   -12.627   -12.653    -0.026     (0)  
   CaHCO3+         1.394e-13   1.314e-13   -12.856   -12.881    -0.025     (0)  
   CaCO3           1.416e-14   1.417e-14   -13.849   -13.849     0.000     (0)  
Cl            2.000e-03
   Cl-             2.000e-03   1.883e-03    -2.699    -2.725    -0.026     (0)  
H(0)          8.352e-11
   H2              4.176e-11   4.179e-11   -10.379   -10.379     0.000     (0)  
Mg            1.000e-03
   Mg+2            9.999e-04   7.923e-04    -3.000    -3.101    -0.101     (0)  
   MgOH+           5.332e-08   5.022e-08    -7.273    -7.299    -0.026     (0)  
   MgHCO3+         1.322e-09   1.245e-09    -8.879    -8.905    -0.026     (0)  
   MgCO3           8.306e-11   8.312e-11   -10.081   -10.080     0.000     (0)  
O(0)          0.000e+00
   O2              0.000e+00   0.000e+00   -71.622   -71.622     0.000     (0)  

------------------------------Saturation indices-------------------------------

	Phase               SI   log IAP   log K(298 K,   1 atm)

	Aragonite        -8.74    -17.07   -8.34  CaCO3
	Calcite          -8.59    -17.07   -8.48  CaCO3
	CO2(g)           -6.29     -7.76   -1.47  CO2
	Dolomite(dis)   -13.04    -30.13  -17.09  CaMg(CO3)2
	H2(g)            -7.19     35.81   43.00  H2
	O2(g)           -68.73    -71.62   -2.89  O2


-----------------------------------------
Beginning of batch-reaction calculations.
-----------------------------------------

Reaction step 1.

Using solution 6.	
Using pure phase assemblage 6.	

-------------------------------Phase assemblage--------------------------------

                                                      Moles in assemblage
Phase               SI  log IAP  log K(T, P)   Initial       Final       Delta

Calcite          -8.59   -17.07     -8.48    0.000e+00           0   0.000e+00

-----------------------------Solution composition------------------------------

	Elements           Molality       Moles

	C                 1.612e-07   1.612e-07
	Ca                9.704e-08   9.704e-08
	Cl                2.000e-03   2.000e-03
	Mg                1.000e-03   1.000e-03

----------------------------Description of solution----------------------------

                                       pH  =   7.242      Charge balance
                                       pe  =  -3.618      Adjusted to redox equilibrium
                        Activity of water  =   1.000
                           Ionic strength  =   3.000e-03
                       Mass of water (kg)  =   1.000e+00
                 Total alkalinity (eq/kg)  =   3.226e-07
                       Total CO2 (mol/kg)  =   1.612e-07
                      Temperature (deg C)  =  25.00
                  Electrical balance (eq)  =   1.941e-16
 Percent error, 100*(Cat-|An|)/(Cat+|An|)  =   0.00
                               Iterations  =   2
                                  Total H  = 1.110124e+02
                                  Total O  = 5.550622e+01

----------------------------Distribution of species----------------------------

                                               Log       Log       Log    mole V
   Species          Molality    Activity  Molality  Activity     Gamma   cm3/mol

   OH-             1.857e-07   1.748e-07    -6.731    -6.758    -0.026     (0)  
   H+              6.053e-08   5.727e-08    -7.218    -7.242    -0.024      0.00
   H2O             5.551e+01   9.999e-01     1.744    -0.000     0.000     18.07
C(-4)         4.350e-13
   CH4             4.350e-13   4.353e-13   -12.361   -12.361     0.000     (0)  
C(4)          1.612e-07
   HCO3-           1.424e-07   1.343e-07    -6.847    -6.872    -0.025     (0)  
   CO2             1.728e-08   1.729e-08    -7.762    -7.762     0.000     (0)  
   MgHCO3+         1.322e-09   1.245e-09    -8.879    -8.905    -0.026     (0)  
   CO3-2           1.390e-10   1.099e-10    -9.857    -9.959    -0.102     (0)  
   MgCO3           8.306e-11   8.312e-11   -10.081   -10.080     0.000     (0)  
   CaHCO3+         1.394e-13   1.314e-13   -12.856   -12.881    -0.025     (0)  
   CaCO3           1.416e-14   1.417e-14   -13.849   -13.849     0.000     (0)  
Ca            9.704e-08
   Ca+2            9.704e-08   7.672e-08    -7.013    -7.115    -0.102     (0)  
   CaOH+           2.360e-13   2.223e-13   -12.627   -12.653    -0.026     (0)  
   CaHCO3+         1.394e-13   1.314e-13   -12.856   -12.881    -0.025     (0)  
   CaCO3           1.416e-14   1.417e-14   -13.849   -13.849     0.000     (0)  
Cl            2.000e-03
   Cl-             2.000e-03   1.883e-03    -2.699    -2.725    -0.026     (0)  
H(0)          8.006e-11
   H2              4.003e-11   4.006e-11   -10.398   -10.397     0.000     (0)  
Mg            1.000e-03
   Mg+2            9.999e-04   7.923e-04    -3.000    -3.101    -0.101     (0)  
   MgOH+           5.332e-08   5.022e-08    -7.273    -7.299    -0.026     (0)  
   MgHCO3+         1.322e-09   1.245e-09    -8.879    -8.905    -0.026     (0)  
   MgCO3           8.306e-11   8.312e-11   -10.081   -10.080     0.000     (0)  
O(0)          0.000e+00
   O2              0.000e+00   0.000e+00   -71.586   -71.585     0.000     (0)  

------------------------------Saturation indices-------------------------------

	Phase               SI   log IAP   log K(298 K,   1 atm)

	Aragonite        -8.74    -17.07   -8.34  CaCO3
	Calcite          -8.59    -17.07   -8.48  CaCO3
	CH4(g)           -9.52    -12.36   -2.84  CH4
	CO2(g)           -6.29     -7.76   -1.47  CO2
	Dolomite(dis)   -13.04    -30.13  -17.09  CaMg(CO3)2
	H2(g)            -7.21     35.79   43.00  H2
	O2(g)           -68.69    -71.59   -2.89  O2


------------------
End of simulation.
------------------

------------------------------------
Reading input data for simulation 7.
------------------------------------

	SOLUTION 7 #New Version 
	units mol/kgw 
	temp 25.000000 
	C(4)       2.813091108848e-07     # comp 
	Ca       1.681180385910e-07     # comp 
	Mg       9.999747201247e-04     # comp 
	Cl       1.999722839327e-03     # comp 
	pH       7.355958116535e+00 charge        # comp 
	pe       -3.791529314758e+00       # comp 
	EQUILIBRIUM_PHASES   7
	Calcite 0.000000000000e+00  0.000000000000e+00       # comp 
	END
-------------------------------------------
Beginning of initial solution calculations.
-------------------------------------------

Initial solution 7.	

-----------------------------Solution composition------------------------------

	Elements           Molality       Moles

	C(4)              2.813e-07   2.813e-07
	Ca                1.681e-07   1.681e-07
	Cl                2.000e-03   2.000e-03
	Mg                1.000e-03   1.000e-03

----------------------------Description of solution----------------------------

                                       pH  =   7.401      Charge balance
                                       pe  =  -3.792    
                        Activity of water  =   1.000
                           Ionic strength  =   3.000e-03
                       Mass of water (kg)  =   1.000e+00
                 Total alkalinity (eq/kg)  =   5.628e-07
                       Total CO2 (mol/kg)  =   2.813e-07
                      Temperature (deg C)  =  25.00
                  Electrical balance (eq)  =   1.911e-16
 Percent error, 100*(Cat-|An|)/(Cat+|An|)  =   0.00
                               Iterations  =   4
                                  Total H  = 1.110124e+02
                                  Total O  = 5.550622e+01

----------------------------Distribution of species----------------------------

                                               Log       Log       Log    mole V
   Species          Molality    Activity  Molality  Activity     Gamma   cm3/mol

   OH-             2.677e-07   2.520e-07    -6.572    -6.599    -0.026     (0)  
   H+              4.199e-08   3.973e-08    -7.377    -7.401    -0.024      0.00
   H2O             5.551e+01   9.999e-01     1.744    -0.000     0.000     18.07
C(4)          2.813e-07
   HCO3-           2.567e-07   2.421e-07    -6.591    -6.616    -0.025     (0)  
   CO2             2.161e-08   2.163e-08    -7.665    -7.665     0.000     (0)  
   MgHCO3+         2.383e-09   2.244e-09    -8.623    -8.649    -0.026     (0)  
   CO3-2           3.613e-10   2.858e-10    -9.442    -9.544    -0.102     (0)  
   MgCO3           2.159e-10   2.161e-10    -9.666    -9.665     0.000     (0)  
   CaHCO3+         4.354e-13   4.106e-13   -12.361   -12.387    -0.025     (0)  
   CaCO3           6.377e-14   6.382e-14   -13.195   -13.195     0.000     (0)  
Ca            1.681e-07
   Ca+2            1.681e-07   1.329e-07    -6.774    -6.876    -0.102     (0)  
   CaOH+           5.895e-13   5.552e-13   -12.230   -12.256    -0.026     (0)  
   CaHCO3+         4.354e-13   4.106e-13   -12.361   -12.387    -0.025     (0)  
   CaCO3           6.377e-14   6.382e-14   -13.195   -13.195     0.000     (0)  
Cl            2.000e-03
   Cl-             2.000e-03   1.882e-03    -2.699    -2.725    -0.026     (0)  
H(0)          8.551e-11
   H2              4.275e-11   4.278e-11   -10.369   -10.369     0.000     (0)  
Mg            1.000e-03
   Mg+2            9.999e-04   7.923e-04    -3.000    -3.101    -0.101     (0)  
   MgOH+           7.687e-08   7.240e-08    -7.114    -7.140    -0.026     (0)  
   MgHCO3+         2.383e-09   2.244e-09    -8.623    -8.649    -0.026     (0)  
   MgCO3           2.159e-10   2.161e-10    -9.666    -9.665     0.000     (0)  
O(0)          0.000e+00
   O2              0.000e+00   0.000e+00   -71.643   -71.643     0.000     (0)  

------------------------------Saturation indices-------------------------------

	Phase               SI   log IAP   log K(298 K,   1 atm)

	Aragonite        -8.08    -16.42   -8.34  CaCO3
	Calcite          -7.94    -16.42   -8.48  CaCO3
	CO2(g)           -6.20     -7.66   -1.47  CO2
	Dolomite(dis)   -11.98    -29.07  -17.09  CaMg(CO3)2
	H2(g)            -7.18     35.82   43.00  H2
	O2(g)           -68.75    -71.64   -2.89  O2


-----------------------------------------
Beginning of batch-reaction calculations.
-----------------------------------------

Reaction step 1.

Using solution 7.	
Using pure phase assemblage 7.	

-------------------------------Phase assemblage--------------------------------

                                                      Moles in assemblage
Phase               SI  log IAP  log K(T, P)   Initial       Final       Delta

Calcite          -7.94   -16.42     -8.48    0.000e+00           0   0.000e+00

-----------------------------Solution composition------------------------------

	Elements           Molality       Moles

	C                 2.813e-07   2.813e-07
	Ca                1.681e-07   1.681e-07
	Cl                2.000e-03   2.000e-03
	Mg                1.000e-03   1.000e-03

----------------------------Description of solution----------------------------

                                       pH  =   7.401      Charge balance
                                       pe  =  -3.780      Adjusted to redox equilibrium
                        Activity of water  =   1.000
                           Ionic strength  =   3.000e-03
                       Mass of water (kg)  =   1.000e+00
                 Total alkalinity (eq/kg)  =   5.628e-07
                       Total CO2 (mol/kg)  =   2.813e-07
                      Temperature (deg C)  =  25.00
                  Electrical balance (eq)  =   1.921e-16
 Percent error, 100*(Cat-|An|)/(Cat+|An|)  =   0.00
                               Iterations  =   2
                                  Total H  = 1.110124e+02
                                  Total O  = 5.550622e+01

----------------------------Distribution of species----------------------------

                                               Log       Log       Log    mole V
   Species          Molality    Activity  Molality  Activity     Gamma   cm3/mol

   OH-             2.677e-07   2.520e-07    -6.572    -6.599    -0.026     (0)  
   H+              4.199e-08   3.973e-08    -7.377    -7.401    -0.024      0.00
   H2O             5.551e+01   9.999e-01     1.744    -0.000     0.000     18.07
C(-4)         5.691e-13
   CH4             5.691e-13   5.695e-13   -12.245   -12.245     0.000     (0)  
C(4)          2.813e-07
   HCO3-           2.567e-07   2.421e-07    -6.591    -6.616    -0.025     (0)  
   CO2             2.161e-08   2.163e-08    -7.665    -7.665     0.000     (0)  
   MgHCO3+         2.383e-09   2.244e-09    -8.623    -8.649    -0.026     (0)  
   CO3-2           3.613e-10   2.858e-10    -9.442    -9.544    -0.102     (0)  
   MgCO3           2.159e-10   2.161e-10    -9.666    -9.665     0.000     (0)  
   CaHCO3+         4.354e-13   4.106e-13   -12.361   -12.387    -0.025     (0)  
   CaCO3           6.377e-14   6.382e-14   -13.195   -13.195     0.000     (0)  
Ca            1.681e-07
   Ca+2            1.681e-07   1.329e-07    -6.774    -6.876    -0.102     (0)  
   CaOH+           5.895e-13   5.552e-13   -12.230   -12.256    -0.026     (0)  
   CaHCO3+         4.354e-13   4.106e-13   -12.361   -12.387    -0.025     (0)  
   CaCO3           6.377e-14   6.382e-14   -13.195   -13.195     0.000     (0)  
Cl            2.000e-03
   Cl-             2.000e-03   1.882e-03    -2.699    -2.725    -0.026     (0)  
H(0)          8.096e-11
   H2              4.048e-11   4.051e-11   -10.393   -10.392     0.000     (0)  
Mg            1.000e-03
   Mg+2            9.999e-04   7.923e-04    -3.000    -3.101    -0.101     (0)  
   MgOH+           7.687e-08   7.240e-08    -7.114    -7.140    -0.026     (0)  
   MgHCO3+         2.383e-09   2.244e-09    -8.623    -8.649    -0.026     (0)  
   MgCO3           2.159e-10   2.161e-10    -9.666    -9.665     0.000     (0)  
O(0)          0.000e+00
   O2              0.000e+00   0.000e+00   -71.595   -71.595     0.000     (0)  

------------------------------Saturation indices-------------------------------

	Phase               SI   log IAP   log K(298 K,   1 atm)

	Aragonite        -8.08    -16.42   -8.34  CaCO3
	Calcite          -7.94    -16.42   -8.48  CaCO3
	CH4(g)           -9.40    -12.24   -2.84  CH4
	CO2(g)           -6.20     -7.66   -1.47  CO2
	Dolomite(dis)   -11.98    -29.07  -17.09  CaMg(CO3)2
	H2(g)            -7.20     35.80   43.00  H2
	O2(g)           -68.70    -71.60   -2.89  O2


------------------
End of simulation.
------------------

------------------------------------
Reading input data for simulation 8.
------------------------------------

	SOLUTION 8 #New Version 
	units mol/kgw 
	temp 25.000000 
	C(4)       4.768676000915e-07     # comp 
	Ca       2.826998969714e-07     # comp 
	Mg       9.999713224077e-04     # comp 
	Cl       1.999554083736e-03     # comp 
	pH       7.531361061255e+00 charge        # comp 
	pe       -3.979108999641e+00       # comp 
	EQUILIBRIUM_PHASES   8
	Calcite 0.000000000000e+00  0.000000000000e+00       # comp 
	END
-------------------------------------------
Beginning of initial solution calculations.
-------------------------------------------

Initial solution 8.	

-----------------------------Solution composition------------------------------

	Elements           Molality       Moles

	C(4)              4.769e-07   4.769e-07
	Ca                2.827e-07   2.827e-07
	Cl                2.000e-03   2.000e-03
	Mg                1.000e-03   1.000e-03

----------------------------Description of solution----------------------------

                                       pH  =   7.586      Charge balance
                                       pe  =  -3.979    
                        Activity of water  =   1.000
                           Ionic strength  =   3.001e-03
                       Mass of water (kg)  =   1.000e+00
                 Total alkalinity (eq/kg)  =   9.540e-07
                       Total CO2 (mol/kg)  =   4.769e-07
                      Temperature (deg C)  =  25.00
                  Electrical balance (eq)  =   1.908e-16
 Percent error, 100*(Cat-|An|)/(Cat+|An|)  =   0.00
                               Iterations  =   4
                                  Total H  = 1.110124e+02
                                  Total O  = 5.550622e+01

----------------------------Distribution of species----------------------------

                                               Log       Log       Log    mole V
   Species          Molality    Activity  Molality  Activity     Gamma   cm3/mol

   OH-             4.098e-07   3.858e-07    -6.387    -6.414    -0.026     (0)  
   H+              2.743e-08   2.595e-08    -7.562    -7.586    -0.024      0.00
   H2O             5.551e+01   9.999e-01     1.744    -0.000     0.000     18.07
C(4)          4.769e-07
   HCO3-           4.466e-07   4.212e-07    -6.350    -6.376    -0.025     (0)  
   CO2             2.456e-08   2.457e-08    -7.610    -7.610     0.000     (0)  
   MgHCO3+         4.145e-09   3.904e-09    -8.382    -8.408    -0.026     (0)  
   CO3-2           9.624e-10   7.612e-10    -9.017    -9.118    -0.102     (0)  
   MgCO3           5.751e-10   5.755e-10    -9.240    -9.240     0.000     (0)  
   CaHCO3+         1.274e-12   1.201e-12   -11.895   -11.920    -0.025     (0)  
   CaCO3           2.856e-13   2.858e-13   -12.544   -12.544     0.000     (0)  
Ca            2.827e-07
   Ca+2            2.827e-07   2.235e-07    -6.549    -6.651    -0.102     (0)  
   CaOH+           1.518e-12   1.429e-12   -11.819   -11.845    -0.026     (0)  
   CaHCO3+         1.274e-12   1.201e-12   -11.895   -11.920    -0.025     (0)  
   CaCO3           2.856e-13   2.858e-13   -12.544   -12.544     0.000     (0)  
Cl            2.000e-03
   Cl-             2.000e-03   1.882e-03    -2.699    -2.725    -0.026     (0)  
H(0)          8.653e-11
   H2              4.327e-11   4.329e-11   -10.364   -10.364     0.000     (0)  
Mg            1.000e-03
   Mg+2            9.998e-04   7.922e-04    -3.000    -3.101    -0.101     (0)  
   MgOH+           1.177e-07   1.108e-07    -6.929    -6.955    -0.026     (0)  
   MgHCO3+         4.145e-09   3.904e-09    -8.382    -8.408    -0.026     (0)  
   MgCO3           5.751e-10   5.755e-10    -9.240    -9.240     0.000     (0)  
O(0)          0.000e+00
   O2              0.000e+00   0.000e+00   -71.653   -71.653     0.000     (0)  

------------------------------Saturation indices-------------------------------

	Phase               SI   log IAP   log K(298 K,   1 atm)

	Aragonite        -7.43    -15.77   -8.34  CaCO3
	Calcite          -7.29    -15.77   -8.48  CaCO3
	CO2(g)           -6.14     -7.61   -1.47  CO2
	Dolomite(dis)   -10.90    -27.99  -17.09  CaMg(CO3)2
	H2(g)            -7.17     35.83   43.00  H2
	O2(g)           -68.76    -71.65   -2.89  O2


-----------------------------------------
Beginning of batch-reaction calculations.
-----------------------------------------

Reaction step 1.

Using solution 8.	
Using pure phase assemblage 8.	

-------------------------------Phase assemblage--------------------------------

                                                      Moles in assemblage
Phase               SI  log IAP  log K(T, P)   Initial       Final       Delta

Calcite          -7.29   -15.77     -8.48    0.000e+00           0   0.000e+00

-----------------------------Solution composition------------------------------

	Elements           Molality       Moles

	C                 4.769e-07   4.769e-07
	Ca                2.827e-07   2.827e-07
	Cl                2.000e-03   2.000e-03
	Mg                1.000e-03   1.000e-03

----------------------------Description of solution----------------------------

                                       pH  =   7.586      Charge balance
                                       pe  =  -3.966      Adjusted to redox equilibrium
                        Activity of water  =   1.000
                           Ionic strength  =   3.001e-03
                       Mass of water (kg)  =   1.000e+00
                 Total alkalinity (eq/kg)  =   9.540e-07
                       Total CO2 (mol/kg)  =   4.769e-07
                      Temperature (deg C)  =  25.00
                  Electrical balance (eq)  =   1.931e-16
 Percent error, 100*(Cat-|An|)/(Cat+|An|)  =   0.00
                               Iterations  =   2
                                  Total H  = 1.110124e+02
                                  Total O  = 5.550622e+01

----------------------------Distribution of species----------------------------

                                               Log       Log       Log    mole V
   Species          Molality    Activity  Molality  Activity     Gamma   cm3/mol

   OH-             4.098e-07   3.858e-07    -6.387    -6.414    -0.026     (0)  
   H+              2.743e-08   2.595e-08    -7.562    -7.586    -0.024      0.00
   H2O             5.551e+01   9.999e-01     1.744    -0.000     0.000     18.07
C(-4)         6.573e-13
   CH4             6.573e-13   6.577e-13   -12.182   -12.182     0.000     (0)  
C(4)          4.769e-07
   HCO3-           4.466e-07   4.212e-07    -6.350    -6.376    -0.025     (0)  
   CO2             2.456e-08   2.457e-08    -7.610    -7.610     0.000     (0)  
   MgHCO3+         4.145e-09   3.904e-09    -8.382    -8.408    -0.026     (0)  
   CO3-2           9.624e-10   7.612e-10    -9.017    -9.118    -0.102     (0)  
   MgCO3           5.751e-10   5.755e-10    -9.240    -9.240     0.000     (0)  
   CaHCO3+         1.274e-12   1.201e-12   -11.895   -11.920    -0.025     (0)  
   CaCO3           2.856e-13   2.858e-13   -12.544   -12.544     0.000     (0)  
Ca            2.827e-07
   Ca+2            2.827e-07   2.235e-07    -6.549    -6.651    -0.102     (0)  
   CaOH+           1.518e-12   1.429e-12   -11.819   -11.845    -0.026     (0)  
   CaHCO3+         1.274e-12   1.201e-12   -11.895   -11.920    -0.025     (0)  
   CaCO3           2.856e-13   2.858e-13   -12.544   -12.544     0.000     (0)  
Cl            2.000e-03
   Cl-             2.000e-03   1.882e-03    -2.699    -2.725    -0.026     (0)  
H(0)          8.129e-11
   H2              4.065e-11   4.067e-11   -10.391   -10.391     0.000     (0)  
Mg            1.000e-03
   Mg+2            9.998e-04   7.922e-04    -3.000    -3.101    -0.101     (0)  
   MgOH+           1.177e-07   1.108e-07    -6.929    -6.955    -0.026     (0)  
   MgHCO3+         4.145e-09   3.904e-09    -8.382    -8.408    -0.026     (0)  
   MgCO3           5.751e-10   5.755e-10    -9.240    -9.240     0.000     (0)  
O(0)          0.000e+00
   O2              0.000e+00   0.000e+00   -71.599   -71.599     0.000     (0)  

------------------------------Saturation indices-------------------------------

	Phase               SI   log IAP   log K(298 K,   1 atm)

	Aragonite        -7.43    -15.77   -8.34  CaCO3
	Calcite          -7.29    -15.77   -8.48  CaCO3
	CH4(g)           -9.34    -12.18   -2.84  CH4
	CO2(g)           -6.14     -7.61   -1.47  CO2
	Dolomite(dis)   -10.90    -27.99  -17.09  CaMg(CO3)2
	H2(g)            -7.20     35.80   43.00  H2
	O2(g)           -68.71    -71.60   -2.89  O2


------------------
End of simulation.
------------------

------------------------------------
Reading input data for simulation 9.
------------------------------------

	SOLUTION 9 #New Version 
	units mol/kgw 
	temp 25.000000 
	C(4)       7.912999042186e-07     # comp 
	Ca       4.649949948722e-07     # comp 
	Mg       9.999781580036e-04     # comp 
	Cl       1.999303474450e-03     # comp 
	pH       7.724028317186e+00 charge        # comp 
	pe       -4.177263471080e+00       # comp 
	EQUILIBRIUM_PHASES   9
	Calcite 0.000000000000e+00  0.000000000000e+00       # comp 
	END
-------------------------------------------
Beginning of initial solution calculations.
-------------------------------------------

Initial solution 9.	

-----------------------------Solution composition------------------------------

	Elements           Molality       Moles

	C(4)              7.913e-07   7.913e-07
	Ca                4.650e-07   4.650e-07
	Cl                1.999e-03   1.999e-03
	Mg                1.000e-03   1.000e-03

----------------------------Description of solution----------------------------

                                       pH  =   7.783      Charge balance
                                       pe  =  -4.177    
                        Activity of water  =   1.000
                           Ionic strength  =   3.001e-03
                       Mass of water (kg)  =   1.000e+00
                 Total alkalinity (eq/kg)  =   1.583e-06
                       Total CO2 (mol/kg)  =   7.913e-07
                      Temperature (deg C)  =  25.00
                  Electrical balance (eq)  =   1.919e-16
 Percent error, 100*(Cat-|An|)/(Cat+|An|)  =   0.00
                               Iterations  =   4
                                  Total H  = 1.110124e+02
                                  Total O  = 5.550622e+01

----------------------------Distribution of species----------------------------

                                               Log       Log       Log    mole V
   Species          Molality    Activity  Molality  Activity     Gamma   cm3/mol

   OH-             6.457e-07   6.078e-07    -6.190    -6.216    -0.026     (0)  
   H+              1.741e-08   1.647e-08    -7.759    -7.783    -0.024      0.00
   H2O             5.551e+01   9.999e-01     1.744    -0.000     0.000     18.07
C(4)          7.913e-07
   HCO3-           7.539e-07   7.110e-07    -6.123    -6.148    -0.025     (0)  
   CO2             2.631e-08   2.633e-08    -7.580    -7.580     0.000     (0)  
   MgHCO3+         6.997e-09   6.590e-09    -8.155    -8.181    -0.026     (0)  
   CO3-2           2.560e-09   2.025e-09    -8.592    -8.694    -0.102     (0)  
   MgCO3           1.529e-09   1.530e-09    -8.816    -8.815     0.000     (0)  
   CaHCO3+         3.536e-12   3.335e-12   -11.451   -11.477    -0.025     (0)  
   CaCO3           1.249e-12   1.250e-12   -11.903   -11.903     0.000     (0)  
Ca            4.650e-07
   Ca+2            4.650e-07   3.676e-07    -6.333    -6.435    -0.102     (0)  
   CaOH+           3.933e-12   3.704e-12   -11.405   -11.431    -0.026     (0)  
   CaHCO3+         3.536e-12   3.335e-12   -11.451   -11.477    -0.025     (0)  
   CaCO3           1.249e-12   1.250e-12   -11.903   -11.903     0.000     (0)  
Cl            1.999e-03
   Cl-             1.999e-03   1.882e-03    -2.699    -2.725    -0.026     (0)  
H(0)          8.682e-11
   H2              4.341e-11   4.344e-11   -10.362   -10.362     0.000     (0)  
Mg            1.000e-03
   Mg+2            9.998e-04   7.922e-04    -3.000    -3.101    -0.101     (0)  
   MgOH+           1.854e-07   1.746e-07    -6.732    -6.758    -0.026     (0)  
   MgHCO3+         6.997e-09   6.590e-09    -8.155    -8.181    -0.026     (0)  
   MgCO3           1.529e-09   1.530e-09    -8.816    -8.815     0.000     (0)  
O(0)          0.000e+00
   O2              0.000e+00   0.000e+00   -71.656   -71.656     0.000     (0)  

------------------------------Saturation indices-------------------------------

	Phase               SI   log IAP   log K(298 K,   1 atm)

	Aragonite        -6.79    -15.13   -8.34  CaCO3
	Calcite          -6.65    -15.13   -8.48  CaCO3
	CO2(g)           -6.11     -7.58   -1.47  CO2
	Dolomite(dis)    -9.83    -26.92  -17.09  CaMg(CO3)2
	H2(g)            -7.17     35.83   43.00  H2
	O2(g)           -68.76    -71.66   -2.89  O2


-----------------------------------------
Beginning of batch-reaction calculations.
-----------------------------------------

Reaction step 1.

Using solution 9.	
Using pure phase assemblage 9.	

-------------------------------Phase assemblage--------------------------------

                                                      Moles in assemblage
Phase               SI  log IAP  log K(T, P)   Initial       Final       Delta

Calcite          -6.65   -15.13     -8.48    0.000e+00           0   0.000e+00

-----------------------------Solution composition------------------------------

	Elements           Molality       Moles

	C                 7.913e-07   7.913e-07
	Ca                4.650e-07   4.650e-07
	Cl                1.999e-03   1.999e-03
	Mg                1.000e-03   1.000e-03

----------------------------Description of solution----------------------------

                                       pH  =   7.783      Charge balance
                                       pe  =  -4.163      Adjusted to redox equilibrium
                        Activity of water  =   1.000
                           Ionic strength  =   3.001e-03
                       Mass of water (kg)  =   1.000e+00
                 Total alkalinity (eq/kg)  =   1.583e-06
                       Total CO2 (mol/kg)  =   7.913e-07
                      Temperature (deg C)  =  25.00
                  Electrical balance (eq)  =   1.933e-16
 Percent error, 100*(Cat-|An|)/(Cat+|An|)  =   0.00
                               Iterations  =   2
                                  Total H  = 1.110124e+02
                                  Total O  = 5.550622e+01

----------------------------Distribution of species----------------------------

                                               Log       Log       Log    mole V
   Species          Molality    Activity  Molality  Activity     Gamma   cm3/mol

   OH-             6.457e-07   6.078e-07    -6.190    -6.216    -0.026     (0)  
   H+              1.741e-08   1.647e-08    -7.759    -7.783    -0.024      0.00
   H2O             5.551e+01   9.999e-01     1.744    -0.000     0.000     18.07
C(-4)         7.021e-13
   CH4             7.021e-13   7.026e-13   -12.154   -12.153     0.000     (0)  
C(4)          7.913e-07
   HCO3-           7.539e-07   7.110e-07    -6.123    -6.148    -0.025     (0)  
   CO2             2.631e-08   2.633e-08    -7.580    -7.580     0.000     (0)  
   MgHCO3+         6.997e-09   6.590e-09    -8.155    -8.181    -0.026     (0)  
   CO3-2           2.560e-09   2.025e-09    -8.592    -8.694    -0.102     (0)  
   MgCO3           1.529e-09   1.530e-09    -8.816    -8.815     0.000     (0)  
   CaHCO3+         3.536e-12   3.335e-12   -11.451   -11.477    -0.025     (0)  
   CaCO3           1.249e-12   1.250e-12   -11.903   -11.903     0.000     (0)  
Ca            4.650e-07
   Ca+2            4.650e-07   3.676e-07    -6.333    -6.435    -0.102     (0)  
   CaOH+           3.933e-12   3.704e-12   -11.405   -11.431    -0.026     (0)  
   CaHCO3+         3.536e-12   3.335e-12   -11.451   -11.477    -0.025     (0)  
   CaCO3           1.249e-12   1.250e-12   -11.903   -11.903     0.000     (0)  
Cl            1.999e-03
   Cl-             1.999e-03   1.882e-03    -2.699    -2.725    -0.026     (0)  
H(0)          8.123e-11
   H2              4.062e-11   4.064e-11   -10.391   -10.391     0.000     (0)  
Mg            1.000e-03
   Mg+2            9.998e-04   7.922e-04    -3.000    -3.101    -0.101     (0)  
   MgOH+           1.854e-07   1.746e-07    -6.732    -6.758    -0.026     (0)  
   MgHCO3+         6.997e-09   6.590e-09    -8.155    -8.181    -0.026     (0)  
   MgCO3           1.529e-09   1.530e-09    -8.816    -8.815     0.000     (0)  
O(0)          0.000e+00
   O2              0.000e+00   0.000e+00   -71.598   -71.598     0.000     (0)  

------------------------------Saturation indices-------------------------------

	Phase               SI   log IAP   log K(298 K,   1 atm)

	Aragonite        -6.79    -15.13   -8.34  CaCO3
	Calcite          -6.65    -15.13   -8.48  CaCO3
	CH4(g)           -9.31    -12.15   -2.84  CH4
	CO2(g)           -6.11     -7.58   -1.47  CO2
	Dolomite(dis)    -9.83    -26.92  -17.09  CaMg(CO3)2
	H2(g)            -7.20     35.80   43.00  H2
	O2(g)           -68.71    -71.60   -2.89  O2


------------------
End of simulation.
------------------

-------------------------------------
Reading input data for simulation 10.
-------------------------------------

	SOLUTION 10 #New Version 
	units mol/kgw 
	temp 25.000000 
	C(4)       1.291819094120e-06     # comp 
	Ca       7.519865763360e-07     # comp 
	Mg       1.000009206107e-03     # comp 
	Cl       1.998938510710e-03     # comp 
	pH       7.923568414165e+00 charge        # comp 
	pe       -4.363165252388e+00       # comp 
	EQUILIBRIUM_PHASES   10
	Calcite 0.000000000000e+00  0.000000000000e+00       # comp 
	END
-------------------------------------------
Beginning of initial solution calculations.
-------------------------------------------

Initial solution 10.	

-----------------------------Solution composition------------------------------

	Elements           Molality       Moles

	C(4)              1.292e-06   1.292e-06
	Ca                7.520e-07   7.520e-07
	Cl                1.999e-03   1.999e-03
	Mg                1.000e-03   1.000e-03

----------------------------Description of solution----------------------------

[...]
   H2O             5.551e+01   1.000e+00     1.744    -0.000     0.000     18.07
C(-4)         1.556e-25
   CH4             1.556e-25   1.556e-25   -24.808   -24.808     0.000     (0)  
C(4)          1.227e-04
   HCO3-           8.316e-05   8.133e-05    -4.080    -4.090    -0.010     (0)  
   CO3-2           3.386e-05   3.098e-05    -4.470    -4.509    -0.039     (0)  
   CaCO3           5.564e-06   5.565e-06    -5.255    -5.255     0.000     (0)  
   CaHCO3+         1.134e-07   1.109e-07    -6.945    -6.955    -0.010     (0)  
   CO2             2.251e-08   2.251e-08    -7.648    -7.648     0.000     (0)  
   MgCO3           1.365e-13   1.365e-13   -12.865   -12.865     0.000     (0)  
   MgHCO3+         4.493e-15   4.393e-15   -14.347   -14.357    -0.010     (0)  
Ca            1.227e-04
   Ca+2            1.169e-04   1.069e-04    -3.932    -3.971    -0.039     (0)  
   CaCO3           5.564e-06   5.565e-06    -5.255    -5.255     0.000     (0)  
   CaOH+           1.474e-07   1.441e-07    -6.831    -6.841    -0.010     (0)  
   CaHCO3+         1.134e-07   1.109e-07    -6.945    -6.955    -0.010     (0)  
Cl            1.139e-11
   Cl-             1.139e-11   1.114e-11   -10.943   -10.953    -0.010     (0)  
H(0)          5.799e-14
   H2              2.899e-14   2.900e-14   -13.538   -13.538     0.000     (0)  
Mg            5.326e-12
   Mg+2            5.045e-12   4.617e-12   -11.297   -11.336    -0.039     (0)  
   MgOH+           1.392e-13   1.362e-13   -12.856   -12.866    -0.010     (0)  
   MgCO3           1.365e-13   1.365e-13   -12.865   -12.865     0.000     (0)  
   MgHCO3+         4.493e-15   4.393e-15   -14.347   -14.357    -0.010     (0)  
O(0)          0.000e+00
   O2              0.000e+00   0.000e+00   -65.305   -65.305     0.000     (0)  

------------------------------Saturation indices-------------------------------

	Phase               SI   log IAP   log K(298 K,   1 atm)

	Aragonite        -0.14     -8.48   -8.34  CaCO3
	Calcite           0.00     -8.48   -8.48  CaCO3
	CH4(g)          -21.97    -24.81   -2.84  CH4
	CO2(g)           -6.18     -7.65   -1.47  CO2
	Dolomite(dis)    -7.23    -24.32  -17.09  CaMg(CO3)2
	H2(g)           -10.35     32.65   43.00  H2
	O2(g)           -62.41    -65.30   -2.89  O2


------------------
End of simulation.
------------------

--------------------------------------
Reading input data for simulation 100.
--------------------------------------

	SOLUTION 100 #New Version 
	units mol/kgw 
	temp 25.000000 
	C(4)       1.227217037984e-04     # comp 
	Ca       1.227217042893e-04     # comp 
	Mg       3.490391099332e-12     # comp 
	Cl       6.962592284220e-12     # comp 
	pH       9.909703054711e+00 charge        # comp 
	pe       -4.917548230211e+00       # comp 
	EQUILIBRIUM_PHASES   100
	Calcite 0.000000000000e+00  1.220004999998e-04       # comp 
	END
-------------------------------------------
Beginning of initial solution calculations.
-------------------------------------------

Initial solution 100.	

-----------------------------Solution composition------------------------------

	Elements           Molality       Moles

	C(4)              1.227e-04   1.227e-04
	Ca                1.227e-04   1.227e-04
	Cl                6.963e-12   6.963e-12
	Mg                3.490e-12   3.490e-12

----------------------------Description of solution----------------------------

                                       pH  =   9.910      Charge balance
                                       pe  =  -4.918    
                        Activity of water  =   1.000
                           Ionic strength  =   3.848e-04
                       Mass of water (kg)  =   1.000e+00
                 Total alkalinity (eq/kg)  =   2.454e-04
                       Total CO2 (mol/kg)  =   1.227e-04
                      Temperature (deg C)  =  25.00
                  Electrical balance (eq)  =   7.860e-19
 Percent error, 100*(Cat-|An|)/(Cat+|An|)  =   0.00
                               Iterations  =   4
                                  Total H  = 1.110126e+02
                                  Total O  = 5.550667e+01

----------------------------Distribution of species----------------------------

                                               Log       Log       Log    mole V
   Species          Molality    Activity  Molality  Activity     Gamma   cm3/mol

   OH-             8.317e-05   8.131e-05    -4.080    -4.090    -0.010     (0)  
   H+              1.258e-10   1.231e-10    -9.900    -9.910    -0.009      0.00
   H2O             5.551e+01   1.000e+00     1.744    -0.000     0.000     18.07
C(4)          1.227e-04
   HCO3-           8.316e-05   8.133e-05    -4.080    -4.090    -0.010     (0)  
   CO3-2           3.386e-05   3.098e-05    -4.470    -4.509    -0.039     (0)  
   CaCO3           5.564e-06   5.565e-06    -5.255    -5.255     0.000     (0)  
   CaHCO3+         1.134e-07   1.109e-07    -6.945    -6.955    -0.010     (0)  
   CO2             2.251e-08   2.251e-08    -7.648    -7.648     0.000     (0)  
   MgCO3           8.944e-14   8.945e-14   -13.048   -13.048     0.000     (0)  
   MgHCO3+         2.945e-15   2.879e-15   -14.531   -14.541    -0.010     (0)  
Ca            1.227e-04
   Ca+2            1.169e-04   1.069e-04    -3.932    -3.971    -0.039     (0)  
   CaCO3           5.564e-06   5.565e-06    -5.255    -5.255     0.000     (0)  
   CaOH+           1.474e-07   1.441e-07    -6.831    -6.841    -0.010     (0)  
   CaHCO3+         1.134e-07   1.109e-07    -6.945    -6.955    -0.010     (0)  
Cl            6.963e-12
   Cl-             6.963e-12   6.808e-12   -11.157   -11.167    -0.010     (0)  
H(0)          1.468e-13
   H2              7.339e-14   7.340e-14   -13.134   -13.134     0.000     (0)  
Mg            3.490e-12
   Mg+2            3.307e-12   3.026e-12   -11.481   -11.519    -0.039     (0)  
   MgOH+           9.126e-14   8.923e-14   -13.040   -13.049    -0.010     (0)  
   MgCO3           8.944e-14   8.945e-14   -13.048   -13.048     0.000     (0)  
   MgHCO3+         2.945e-15   2.879e-15   -14.531   -14.541    -0.010     (0)  
O(0)          0.000e+00
   O2              0.000e+00   0.000e+00   -66.111   -66.111     0.000     (0)  

------------------------------Saturation indices-------------------------------

	Phase               SI   log IAP   log K(298 K,   1 atm)

	Aragonite        -0.14     -8.48   -8.34  CaCO3
	Calcite           0.00     -8.48   -8.48  CaCO3
	CO2(g)           -6.18     -7.65   -1.47  CO2
	Dolomite(dis)    -7.42    -24.51  -17.09  CaMg(CO3)2
	H2(g)            -9.94     33.06   43.00  H2
	O2(g)           -63.22    -66.11   -2.89  O2


-----------------------------------------
Beginning of batch-reaction calculations.
-----------------------------------------

Reaction step 1.

Using solution 100.	
Using pure phase assemblage 100.	

-------------------------------Phase assemblage--------------------------------

                                                      Moles in assemblage
Phase               SI  log IAP  log K(T, P)   Initial       Final       Delta

Calcite           0.00    -8.48     -8.48    1.220e-04   1.220e-04   4.276e-17

-----------------------------Solution composition------------------------------

	Elements           Molality       Moles

	C                 1.227e-04   1.227e-04
	Ca                1.227e-04   1.227e-04
	Cl                6.963e-12   6.963e-12
	Mg                3.490e-12   3.490e-12

----------------------------Description of solution----------------------------

                                       pH  =   9.910      Charge balance
                                       pe  =  -4.915      Adjusted to redox equilibrium
                        Activity of water  =   1.000
                           Ionic strength  =   3.848e-04
                       Mass of water (kg)  =   1.000e+00
                 Total alkalinity (eq/kg)  =   2.454e-04
                       Total CO2 (mol/kg)  =   1.227e-04
                      Temperature (deg C)  =  25.00
                  Electrical balance (eq)  =   3.388e-19
 Percent error, 100*(Cat-|An|)/(Cat+|An|)  =   0.00
                               Iterations  =   1
                                  Total H  = 1.110126e+02
                                  Total O  = 5.550667e+01

----------------------------Distribution of species----------------------------

                                               Log       Log       Log    mole V
   Species          Molality    Activity  Molality  Activity     Gamma   cm3/mol

   OH-             8.317e-05   8.131e-05    -4.080    -4.090    -0.010     (0)  
   H+              1.258e-10   1.231e-10    -9.900    -9.910    -0.009      0.00
   H2O             5.551e+01   1.000e+00     1.744    -0.000     0.000     18.07
C(-4)         6.049e-24
   CH4             6.049e-24   6.049e-24   -23.218   -23.218     0.000     (0)  
C(4)          1.227e-04
   HCO3-           8.316e-05   8.133e-05    -4.080    -4.090    -0.010     (0)  
   CO3-2           3.386e-05   3.098e-05    -4.470    -4.509    -0.039     (0)  
   CaCO3           5.564e-06   5.565e-06    -5.255    -5.255     0.000     (0)  
   CaHCO3+         1.134e-07   1.109e-07    -6.945    -6.955    -0.010     (0)  
   CO2             2.251e-08   2.251e-08    -7.648    -7.648     0.000     (0)  
   MgCO3           8.944e-14   8.945e-14   -13.048   -13.048     0.000     (0)  
   MgHCO3+         2.945e-15   2.879e-15   -14.531   -14.541    -0.010     (0)  
Ca            1.227e-04
   Ca+2            1.169e-04   1.069e-04    -3.932    -3.971    -0.039     (0)  
   CaCO3           5.564e-06   5.565e-06    -5.255    -5.255     0.000     (0)  
   CaOH+           1.474e-07   1.441e-07    -6.831    -6.841    -0.010     (0)  
   CaHCO3+         1.134e-07   1.109e-07    -6.945    -6.955    -0.010     (0)  
Cl            6.963e-12
   Cl-             6.963e-12   6.808e-12   -11.157   -11.167    -0.010     (0)  
H(0)          1.448e-13
   H2              7.240e-14   7.240e-14   -13.140   -13.140     0.000     (0)  
Mg            3.490e-12
   Mg+2            3.307e-12   3.026e-12   -11.481   -11.519    -0.039     (0)  
   MgOH+           9.126e-14   8.923e-14   -13.040   -13.049    -0.010     (0)  
   MgCO3           8.944e-14   8.945e-14   -13.048   -13.048     0.000     (0)  
   MgHCO3+         2.945e-15   2.879e-15   -14.531   -14.541    -0.010     (0)  
O(0)          0.000e+00
   O2              0.000e+00   0.000e+00   -66.100   -66.100     0.000     (0)  

------------------------------Saturation indices-------------------------------

	Phase               SI   log IAP   log K(298 K,   1 atm)

	Aragonite        -0.14     -8.48   -8.34  CaCO3
	Calcite           0.00     -8.48   -8.48  CaCO3
	CH4(g)          -20.38    -23.22   -2.84  CH4
	CO2(g)           -6.18     -7.65   -1.47  CO2
	Dolomite(dis)    -7.42    -24.51  -17.09  CaMg(CO3)2
	H2(g)            -9.95     33.05   43.00  H2
	O2(g)           -63.21    -66.10   -2.89  O2


------------------
End of simulation.
------------------

--------------------------------------
Reading input data for simulation 101.
--------------------------------------

	SOLUTION 101 #New Version 
	units mol/kgw 
	temp 25.000000 
	C(4)       1.227217038146e-04     # comp 
	Ca       1.227217041804e-04     # comp 
	Mg       2.879618376602e-12     # comp 
	Cl       5.490997380171e-12     # comp 
	pH       9.909703054927e+00 charge        # comp 
	pe       -4.911118347083e+00       # comp 
	EQUILIBRIUM_PHASES   101
	Calcite 0.000000000000e+00  1.220005000001e-04       # comp 
	END
-------------------------------------------
Beginning of initial solution calculations.
-------------------------------------------

Initial solution 101.	

-----------------------------Solution composition------------------------------

	Elements           Molality       Moles

	C(4)              1.227e-04   1.227e-04
	Ca                1.227e-04   1.227e-04
	Cl                5.491e-12   5.491e-12
	Mg                2.880e-12   2.880e-12

----------------------------Description of solution----------------------------

                                       pH  =   9.910      Charge balance
                                       pe  =  -4.911    
                        Activity of water  =   1.000
                           Ionic strength  =   3.848e-04
                       Mass of water (kg)  =   1.000e+00
                 Total alkalinity (eq/kg)  =   2.454e-04
                       Total CO2 (mol/kg)  =   1.227e-04
                      Temperature (deg C)  =  25.00
                  Electrical balance (eq)  =  -5.421e-20
 Percent error, 100*(Cat-|An|)/(Cat+|An|)  =  -0.00
                               Iterations  =   4
                                  Total H  = 1.110126e+02
                                  Total O  = 5.550667e+01

----------------------------Distribution of species----------------------------

                                               Log       Log       Log    mole V
   Species          Molality    Activity  Molality  Activity     Gamma   cm3/mol

   OH-             8.317e-05   8.131e-05    -4.080    -4.090    -0.010     (0)  
   H+              1.258e-10   1.231e-10    -9.900    -9.910    -0.009      0.00
   H2O             5.551e+01   1.000e+00     1.744    -0.000     0.000     18.07
C(4)          1.227e-04
   HCO3-           8.316e-05   8.133e-05    -4.080    -4.090    -0.010     (0)  
   CO3-2           3.386e-05   3.098e-05    -4.470    -4.509    -0.039     (0)  
   CaCO3           5.564e-06   5.565e-06    -5.255    -5.255     0.000     (0)  
   CaHCO3+         1.134e-07   1.109e-07    -6.945    -6.955    -0.010     (0)  
   CO2             2.251e-08   2.251e-08    -7.648    -7.648     0.000     (0)  
   MgCO3           7.379e-14   7.379e-14   -13.132   -13.132     0.000     (0)  
   MgHCO3+         2.429e-15   2.375e-15   -14.615   -14.624    -0.010     (0)  
Ca            1.227e-04
   Ca+2            1.169e-04   1.069e-04    -3.932    -3.971    -0.039     (0)  
   CaCO3           5.564e-06   5.565e-06    -5.255    -5.255     0.000     (0)  
   CaOH+           1.474e-07   1.441e-07    -6.831    -6.841    -0.010     (0)  
   CaHCO3+         1.134e-07   1.109e-07    -6.945    -6.955    -0.010     (0)  
Cl            5.491e-12
   Cl-             5.491e-12   5.369e-12   -11.260   -11.270    -0.010     (0)  
H(0)          1.425e-13
   H2              7.125e-14   7.126e-14   -13.147   -13.147     0.000     (0)  
Mg            2.880e-12
   Mg+2            2.728e-12   2.496e-12   -11.564   -11.603    -0.039     (0)  
   MgOH+           7.529e-14   7.362e-14   -13.123   -13.133    -0.010     (0)  
   MgCO3           7.379e-14   7.379e-14   -13.132   -13.132     0.000     (0)  
   MgHCO3+         2.429e-15   2.375e-15   -14.615   -14.624    -0.010     (0)  
O(0)          0.000e+00
   O2              0.000e+00   0.000e+00   -66.086   -66.086     0.000     (0)  

------------------------------Saturation indices-------------------------------

	Phase               SI   log IAP   log K(298 K,   1 atm)

	Aragonite        -0.14     -8.48   -8.34  CaCO3
	Calcite           0.00     -8.48   -8.48  CaCO3
	CO2(g)           -6.18     -7.65   -1.47  CO2
	Dolomite(dis)    -7.50    -24.59  -17.09  CaMg(CO3)2
	H2(g)            -9.96     33.04   43.00  H2
	O2(g)           -63.19    -66.09   -2.89  O2


-----------------------------------------
Beginning of batch-reaction calculations.
-----------------------------------------

Reaction step 1.

Using solution 101.	
Using pure phase assemblage 101.	

-------------------------------Phase assemblage--------------------------------

                                                      Moles in assemblage
Phase               SI  log IAP  log K(T, P)   Initial       Final       Delta

Calcite           0.00    -8.48     -8.48    1.220e-04   1.220e-04   6.397e-18

-----------------------------Solution composition------------------------------

	Elements           Molality       Moles

	C                 1.227e-04   1.227e-04
	Ca                1.227e-04   1.227e-04
	Cl                5.491e-12   5.491e-12
	Mg                2.880e-12   2.880e-12

----------------------------Description of solution----------------------------

                                       pH  =   9.910      Charge balance
                                       pe  =  -4.868      Adjusted to redox equilibrium
                        Activity of water  =   1.000
                           Ionic strength  =   3.848e-04
                       Mass of water (kg)  =   1.000e+00
                 Total alkalinity (eq/kg)  =   2.454e-04
                       Total CO2 (mol/kg)  =   1.227e-04
                      Temperature (deg C)  =  25.00
                  Electrical balance (eq)  =  -2.711e-19
 Percent error, 100*(Cat-|An|)/(Cat+|An|)  =  -0.00
                               Iterations  =   1
                                  Total H  = 1.110126e+02
                                  Total O  = 5.550667e+01

----------------------------Distribution of species----------------------------

                                               Log       Log       Log    mole V
   Species          Molality    Activity  Molality  Activity     Gamma   cm3/mol

   OH-             8.317e-05   8.131e-05    -4.080    -4.090    -0.010     (0)  
   H+              1.258e-10   1.231e-10    -9.900    -9.910    -0.009      0.00
   H2O             5.551e+01   1.000e+00     1.744    -0.000     0.000     18.07
C(-4)         2.545e-24
   CH4             2.545e-24   2.545e-24   -23.594   -23.594     0.000     (0)  
C(4)          1.227e-04
   HCO3-           8.316e-05   8.133e-05    -4.080    -4.090    -0.010     (0)  
   CO3-2           3.386e-05   3.098e-05    -4.470    -4.509    -0.039     (0)  
   CaCO3           5.564e-06   5.565e-06    -5.255    -5.255     0.000     (0)  
   CaHCO3+         1.134e-07   1.109e-07    -6.945    -6.955    -0.010     (0)  
   CO2             2.251e-08   2.251e-08    -7.648    -7.648     0.000     (0)  
   MgCO3           7.379e-14   7.379e-14   -13.132   -13.132     0.000     (0)  
   MgHCO3+         2.429e-15   2.375e-15   -14.615   -14.624    -0.010     (0)  
Ca            1.227e-04
   Ca+2            1.169e-04   1.069e-04    -3.932    -3.971    -0.039     (0)  
   CaCO3           5.564e-06   5.565e-06    -5.255    -5.255     0.000     (0)  
   CaOH+           1.474e-07   1.441e-07    -6.831    -6.841    -0.010     (0)  
   CaHCO3+         1.134e-07   1.109e-07    -6.945    -6.955    -0.010     (0)  
Cl            5.491e-12
   Cl-             5.491e-12   5.369e-12   -11.260   -11.270    -0.010     (0)  
H(0)          1.166e-13
   H2              5.831e-14   5.831e-14   -13.234   -13.234     0.000     (0)  
Mg            2.880e-12
   Mg+2            2.728e-12   2.496e-12   -11.564   -11.603    -0.039     (0)  
   MgOH+           7.529e-14   7.362e-14   -13.123   -13.133    -0.010     (0)  
   MgCO3           7.379e-14   7.379e-14   -13.132   -13.132     0.000     (0)  
   MgHCO3+         2.429e-15   2.375e-15   -14.615   -14.624    -0.010     (0)  
O(0)          0.000e+00
   O2              0.000e+00   0.000e+00   -65.912   -65.912     0.000     (0)  

------------------------------Saturation indices-------------------------------

	Phase               SI   log IAP   log K(298 K,   1 atm)

	Aragonite        -0.14     -8.48   -8.34  CaCO3
	Calcite           0.00     -8.48   -8.48  CaCO3
	CH4(g)          -20.75    -23.59   -2.84  CH4
	CO2(g)           -6.18     -7.65   -1.47  CO2
	Dolomite(dis)    -7.50    -24.59  -17.09  CaMg(CO3)2
	H2(g)           -10.04     32.96   43.00  H2
	O2(g)           -63.02    -65.91   -2.89  O2


------------------
End of simulation.
------------------

--------------------------------------
Reading input data for simulation 102.
--------------------------------------

------------------------------
End of Run after 0.12 Seconds.
------------------------------

