   Input file: phinp.dat
  Output file: phinp.out
Database file: phreeqc.dat

------------------
Reading data base.
------------------

	SOLUTION_MASTER_SPECIES
	SOLUTION_SPECIES
	PHASES
	EXCHANGE_MASTER_SPECIES
	EXCHANGE_SPECIES
	SURFACE_MASTER_SPECIES
	SURFACE_SPECIES
	RATES
------------------------------------
Reading input data for simulation 1.
------------------------------------

	SOLUTION 1 #New Version 
	units mol/kgw 
	temp 25.000000 
	C(4)       1.000000000000e-10     # comp 
	Ca       1.000000000000e-10     # comp 
	Mg       1.000000000000e-03     # comp 
	Cl       2.000000000000e-03     # comp 
	pH       6.944195375152e+00 charge        # comp 
	pe       -5.359901914078e+00       # comp 
	EQUILIBRIUM_PHASES   1
	Calcite 0.000000000000e+00  0.000000000000e+00       # comp 
	KINETICS 1
	Dolomite(dis)  # comp
	m 0.000000000000e+00
	steps 1.000000000000e+02 in 1 steps
	RATES 1
	Dolomite(dis)
	  start
	rem kmech = k25*exp(-Eact/R*(1/T-1/298.15))*Product([Ci]^nyi)
	10  R = 8.314472
	11  deltaT = 1/TK - 1/298.15
	12  e = 2.7183
	13  Ea = 36100
	14  logK25 = -3.19
	15  ny = 0.5
	rem 16  mech_a = (10^logK25) * (e^(-Ea/R*deltaT)) * ACT("H+")^ny
	16  mech_a = (10^logK25) * ACT("H+")^ny
	23  Ea = 52200
	24  logK25 = -7.53
	rem 26  mech_b = (10^logK25) * (e^(-Ea/R*deltaT)) 
	26  mech_b = (10^logK25) 
	30  rate = mech_a + mech_b
	40  teta = 1 
	41  eta = 1
	42  Area = .001
	70  rate = Area * rate * (1 - SR("Dolomite(dis)")^teta)^eta
	80  moles = rate * time
	100 save moles
	      end
	PRINT
	 reset true
	 selected_output true
	SELECTED_OUTPUT
	file phout_sel.dat
	high_precision
	reset false
	USER_PUNCH
	heading  C(4) Ca Mg Cl pH  H+  pe  Calcite Dolomite(dis)
	 10 PUNCH  TOT("C(4)"), TOT("Ca"), TOT("Mg"), TOT("Cl"),
	 20 PUNCH  -LA("H+"),  MOL("H+"),   -LA("e-")
	 40 PUNCH  EQUI("Calcite"),
	 80 PUNCH  KIN("Dolomite(dis)"),
	END
-------------------------------------------
Beginning of initial solution calculations.
-------------------------------------------

Initial solution 1.	

-----------------------------Solution composition------------------------------

	Elements           Molality       Moles

	C(4)              1.000e-10   1.000e-10
	Ca                1.000e-10   1.000e-10
	Cl                2.000e-03   2.000e-03
	Mg                1.000e-03   1.000e-03

----------------------------Description of solution----------------------------

                                       pH  =   6.944      Charge balance
                                       pe  =  -5.360    
                        Activity of water  =   1.000
                           Ionic strength  =   3.000e-03
                       Mass of water (kg)  =   1.000e+00
                 Total alkalinity (eq/kg)  =   2.000e-10
                       Total CO2 (mol/kg)  =   1.000e-10
                      Temperature (deg C)  =  25.00
                  Electrical balance (eq)  =   1.900e-16
 Percent error, 100*(Cat-|An|)/(Cat+|An|)  =   0.00
                               Iterations  =   4
                                  Total H  = 1.110124e+02
                                  Total O  = 5.550622e+01

----------------------------Distribution of species----------------------------

                                               Log       Log       Log    mole V
   Species          Molality    Activity  Molality  Activity     Gamma   cm3/mol

   H+              1.202e-07   1.137e-07    -6.920    -6.944    -0.024      0.00
   OH-             9.349e-08   8.800e-08    -7.029    -7.056    -0.026     (0)  
   H2O             5.551e+01   9.999e-01     1.744    -0.000     0.000     18.07
C(4)          1.000e-10
   HCO3-           7.993e-11   7.538e-11   -10.097   -10.123    -0.025     (0)  
   CO2             1.927e-11   1.928e-11   -10.715   -10.715     0.000     (0)  
   MgHCO3+         7.420e-13   6.988e-13   -12.130   -12.156    -0.026     (0)  
   CO3-2           3.929e-14   3.108e-14   -13.406   -13.508    -0.102     (0)  
   MgCO3           2.348e-14   2.350e-14   -13.629   -13.629     0.000     (0)  
   CaHCO3+         8.063e-20   7.604e-20   -19.094   -19.119    -0.025     (0)  
   CaCO3           4.125e-21   4.128e-21   -20.385   -20.384     0.000     (0)  
Ca            1.000e-10
   Ca+2            1.000e-10   7.906e-11   -10.000   -10.102    -0.102     (0)  
   CaOH+           1.225e-16   1.153e-16   -15.912   -15.938    -0.026     (0)  
   CaHCO3+         8.063e-20   7.604e-20   -19.094   -19.119    -0.025     (0)  
   CaCO3           4.125e-21   4.128e-21   -20.385   -20.384     0.000     (0)  
Cl            2.000e-03
   Cl-             2.000e-03   1.883e-03    -2.699    -2.725    -0.026     (0)  
H(0)          9.604e-07
   H2              4.802e-07   4.805e-07    -6.319    -6.318     0.000     (0)  
Mg            1.000e-03
   Mg+2            1.000e-03   7.923e-04    -3.000    -3.101    -0.101     (0)  
   MgOH+           2.685e-08   2.529e-08    -7.571    -7.597    -0.026     (0)  
   MgHCO3+         7.420e-13   6.988e-13   -12.130   -12.156    -0.026     (0)  
   MgCO3           2.348e-14   2.350e-14   -13.629   -13.629     0.000     (0)  
O(0)          0.000e+00
   O2              0.000e+00   0.000e+00   -79.744   -79.743     0.000     (0)  

------------------------------Saturation indices-------------------------------

	Phase               SI   log IAP   log K(298 K,   1 atm)

	Aragonite       -15.27    -23.61   -8.34  CaCO3
	Calcite         -15.13    -23.61   -8.48  CaCO3
	CO2(g)           -9.25    -10.71   -1.47  CO2
	Dolomite(dis)   -23.13    -40.22  -17.09  CaMg(CO3)2
	H2(g)            -3.13     39.87   43.00  H2
	O2(g)           -76.85    -79.74   -2.89  O2


-----------------------------------------
Beginning of batch-reaction calculations.
-----------------------------------------

Reaction step 1.

Using solution 1.	
Using pure phase assemblage 1.	
Using kinetics 1.	

Kinetics 1.	

	Time step: 100 seconds

	Rate name       Delta Moles Total Moles   Reactant        Coefficient

	Dolomite(dis)    -0.000e+00   0.000e+00   Dolomite(dis)             1

-------------------------------Phase assemblage--------------------------------

                                                      Moles in assemblage
Phase               SI  log IAP  log K(T, P)   Initial       Final       Delta

Calcite         -26.13   -34.61     -8.48    0.000e+00           0   0.000e+00

-----------------------------Solution composition------------------------------

	Elements           Molality       Moles

	C                 1.000e-10   1.000e-10
	Ca                1.000e-10   1.000e-10
	Cl                2.000e-03   2.000e-03
	Mg                1.000e-03   1.000e-03

----------------------------Description of solution----------------------------

                                       pH  =   6.944      Charge balance
                                       pe  =  -5.360      Adjusted to redox equilibrium
                        Activity of water  =   1.000
                           Ionic strength  =   3.000e-03
                       Mass of water (kg)  =   1.000e+00
                 Total alkalinity (eq/kg)  =   2.000e-10
                       Total CO2 (mol/kg)  =   9.992e-22
                      Temperature (deg C)  =  25.00
                  Electrical balance (eq)  =   1.903e-16
 Percent error, 100*(Cat-|An|)/(Cat+|An|)  =   0.00
                               Iterations  =   7
                                  Total H  = 1.110124e+02
                                  Total O  = 5.550622e+01

----------------------------Distribution of species----------------------------

                                               Log       Log       Log    mole V
   Species          Molality    Activity  Molality  Activity     Gamma   cm3/mol

   H+              1.202e-07   1.137e-07    -6.920    -6.944    -0.024      0.00
   OH-             9.352e-08   8.803e-08    -7.029    -7.055    -0.026     (0)  
   H2O             5.551e+01   9.999e-01     1.744    -0.000     0.000     18.07
C(-4)         1.000e-10
   CH4             1.000e-10   1.001e-10   -10.000   -10.000     0.000     (0)  
C(4)          9.992e-22
   HCO3-           7.987e-22   7.532e-22   -21.098   -21.123    -0.025     (0)  
   CO2             1.924e-22   1.926e-22   -21.716   -21.715     0.000     (0)  
   MgHCO3+         7.414e-24   6.983e-24   -23.130   -23.156    -0.026     (0)  
   CO3-2           3.927e-25   3.106e-25   -24.406   -24.508    -0.102     (0)  
   MgCO3           2.347e-25   2.349e-25   -24.629   -24.629     0.000     (0)  
   CaHCO3+         8.056e-31   7.598e-31   -30.094   -30.119    -0.025     (0)  
   CaCO3           4.123e-32   4.126e-32   -31.385   -31.384     0.000     (0)  
Ca            1.000e-10
   Ca+2            1.000e-10   7.906e-11   -10.000   -10.102    -0.102     (0)  
   CaOH+           1.225e-16   1.154e-16   -15.912   -15.938    -0.026     (0)  
   CaHCO3+         8.056e-31   7.598e-31   -30.094   -30.119    -0.025     (0)  
   CaCO3           4.123e-32   4.126e-32   -31.385   -31.384     0.000     (0)  
Cl            2.000e-03
   Cl-             2.000e-03   1.883e-03    -2.699    -2.725    -0.026     (0)  
H(0)          9.596e-07
   H2              4.798e-07   4.801e-07    -6.319    -6.319     0.000     (0)  
Mg            1.000e-03
   Mg+2            1.000e-03   7.923e-04    -3.000    -3.101    -0.101     (0)  
   MgOH+           2.686e-08   2.530e-08    -7.571    -7.597    -0.026     (0)  
   MgHCO3+         7.414e-24   6.983e-24   -23.130   -23.156    -0.026     (0)  
   MgCO3           2.347e-25   2.349e-25   -24.629   -24.629     0.000     (0)  
O(0)          0.000e+00
   O2              0.000e+00   0.000e+00   -79.743   -79.743     0.000     (0)  

------------------------------Saturation indices-------------------------------

	Phase               SI   log IAP   log K(298 K,   1 atm)

	Aragonite       -26.27    -34.61   -8.34  CaCO3
	Calcite         -26.13    -34.61   -8.48  CaCO3
	CH4(g)           -7.16    -10.00   -2.84  CH4
	CO2(g)          -20.25    -21.72   -1.47  CO2
	Dolomite(dis)   -45.13    -62.22  -17.09  CaMg(CO3)2
	H2(g)            -3.13     39.87   43.00  H2
	O2(g)           -76.85    -79.74   -2.89  O2


------------------
End of simulation.
------------------

------------------------------------
Reading input data for simulation 2.
------------------------------------

	SOLUTION 2 #New Version 
	units mol/kgw 
	temp 25.000000 
	C(4)       3.008155417510e-09     # comp 
	Ca       2.995927582604e-09     # comp 
	Mg       9.999960666297e-04     # comp 
	Cl       1.999991911217e-03     # comp 
	pH       6.950904781954e+00 charge        # comp 
	pe       -3.321508048959e+00       # comp 
	EQUILIBRIUM_PHASES   2
	Calcite 0.000000000000e+00  0.000000000000e+00       # comp 
	KINETICS 2
	Dolomite(dis)  # comp
	m 0.000000000000e+00
	steps 1.000000000000e+02 in 1 steps
	RATES 2
	Dolomite(dis)
	  start
	rem kmech = k25*exp(-Eact/R*(1/T-1/298.15))*Product([Ci]^nyi)
	10  R = 8.314472
	11  deltaT = 1/TK - 1/298.15
	12  e = 2.7183
	13  Ea = 36100
	14  logK25 = -3.19
	15  ny = 0.5
	rem 16  mech_a = (10^logK25) * (e^(-Ea/R*deltaT)) * ACT("H+")^ny
	16  mech_a = (10^logK25) * ACT("H+")^ny
	23  Ea = 52200
	24  logK25 = -7.53
	rem 26  mech_b = (10^logK25) * (e^(-Ea/R*deltaT)) 
	26  mech_b = (10^logK25) 
	30  rate = mech_a + mech_b
	40  teta = 1 
	41  eta = 1
	42  Area = .001
	70  rate = Area * rate * (1 - SR("Dolomite(dis)")^teta)^eta
	80  moles = rate * time
	100 save moles
	      end
	END
-------------------------------------------
Beginning of initial solution calculations.
-------------------------------------------

Initial solution 2.	

-----------------------------Solution composition------------------------------

	Elements           Molality       Moles

	C(4)              3.008e-09   3.008e-09
	Ca                2.996e-09   2.996e-09
	Cl                2.000e-03   2.000e-03
	Mg                1.000e-03   1.000e-03

----------------------------Description of solution----------------------------

                                       pH  =   6.951      Charge balance
                                       pe  =  -3.322    
                        Activity of water  =   1.000
                           Ionic strength  =   3.000e-03
                       Mass of water (kg)  =   1.000e+00
                 Total alkalinity (eq/kg)  =   6.214e-09
                       Total CO2 (mol/kg)  =   3.008e-09
                      Temperature (deg C)  =  25.00
                  Electrical balance (eq)  =   1.902e-16
 Percent error, 100*(Cat-|An|)/(Cat+|An|)  =   0.00
                               Iterations  =   4
                                  Total H  = 1.110124e+02
                                  Total O  = 5.550622e+01

----------------------------Distribution of species----------------------------

                                               Log       Log       Log    mole V
   Species          Molality    Activity  Molality  Activity     Gamma   cm3/mol

   H+              1.184e-07   1.120e-07    -6.927    -6.951    -0.024      0.00
   OH-             9.492e-08   8.935e-08    -7.023    -7.049    -0.026     (0)  
   H2O             5.551e+01   9.999e-01     1.744    -0.000     0.000     18.07
C(4)          3.008e-09
   HCO3-           2.411e-09   2.274e-09    -8.618    -8.643    -0.025     (0)  
   CO2             5.725e-10   5.729e-10    -9.242    -9.242     0.000     (0)  
   MgHCO3+         2.238e-11   2.108e-11   -10.650   -10.676    -0.026     (0)  
   CO3-2           1.204e-12   9.519e-13   -11.920   -12.021    -0.102     (0)  
   MgCO3           7.192e-13   7.197e-13   -12.143   -12.143     0.000     (0)  
   CaHCO3+         7.287e-17   6.872e-17   -16.137   -16.163    -0.025     (0)  
   CaCO3           3.785e-18   3.788e-18   -17.422   -17.422     0.000     (0)  
Ca            2.996e-09
   Ca+2            2.996e-09   2.369e-09    -8.523    -8.625    -0.102     (0)  
   CaOH+           3.725e-15   3.509e-15   -14.429   -14.455    -0.026     (0)  
   CaHCO3+         7.287e-17   6.872e-17   -16.137   -16.163    -0.025     (0)  
   CaCO3           3.785e-18   3.788e-18   -17.422   -17.422     0.000     (0)  
Cl            2.000e-03
   Cl-             2.000e-03   1.883e-03    -2.699    -2.725    -0.026     (0)  
H(0)          7.806e-11
   H2              3.903e-11   3.906e-11   -10.409   -10.408     0.000     (0)  
Mg            1.000e-03
   Mg+2            1.000e-03   7.923e-04    -3.000    -3.101    -0.101     (0)  
   MgOH+           2.726e-08   2.568e-08    -7.564    -7.590    -0.026     (0)  
   MgHCO3+         2.238e-11   2.108e-11   -10.650   -10.676    -0.026     (0)  
   MgCO3           7.192e-13   7.197e-13   -12.143   -12.143     0.000     (0)  
O(0)          0.000e+00
   O2              0.000e+00   0.000e+00   -71.564   -71.563     0.000     (0)  

------------------------------Saturation indices-------------------------------

	Phase               SI   log IAP   log K(298 K,   1 atm)

	Aragonite       -12.31    -20.65   -8.34  CaCO3
	Calcite         -12.17    -20.65   -8.48  CaCO3
	CO2(g)           -7.77     -9.24   -1.47  CO2
	Dolomite(dis)   -18.68    -35.77  -17.09  CaMg(CO3)2
	H2(g)            -7.22     35.78   43.00  H2
	O2(g)           -68.67    -71.56   -2.89  O2


-----------------------------------------
Beginning of batch-reaction calculations.
-----------------------------------------

Reaction step 1.

Using solution 2.	
Using pure phase assemblage 2.	
Using kinetics 2.	

Kinetics 2.	

	Time step: 100 seconds

	Rate name       Delta Moles Total Moles   Reactant        Coefficient

	Dolomite(dis)    -0.000e+00   0.000e+00   Dolomite(dis)             1

-------------------------------Phase assemblage--------------------------------

                                                      Moles in assemblage
Phase               SI  log IAP  log K(T, P)   Initial       Final       Delta

Calcite         -12.17   -20.65     -8.48    0.000e+00           0   0.000e+00

-----------------------------Solution composition------------------------------

	Elements           Molality       Moles

	C                 3.008e-09   3.008e-09
	Ca                2.996e-09   2.996e-09
	Cl                2.000e-03   2.000e-03
	Mg                1.000e-03   1.000e-03

----------------------------Description of solution----------------------------

                                       pH  =   6.951      Charge balance
                                       pe  =  -3.321      Adjusted to redox equilibrium
                        Activity of water  =   1.000
                           Ionic strength  =   3.000e-03
                       Mass of water (kg)  =   1.000e+00
                 Total alkalinity (eq/kg)  =   6.214e-09
                       Total CO2 (mol/kg)  =   3.008e-09
                      Temperature (deg C)  =  25.00
                  Electrical balance (eq)  =   2.008e-16
 Percent error, 100*(Cat-|An|)/(Cat+|An|)  =   0.00
                               Iterations  =   5
                                  Total H  = 1.110124e+02
                                  Total O  = 5.550622e+01

----------------------------Distribution of species----------------------------

                                               Log       Log       Log    mole V
   Species          Molality    Activity  Molality  Activity     Gamma   cm3/mol

   H+              1.184e-07   1.120e-07    -6.927    -6.951    -0.024      0.00
   OH-             9.492e-08   8.935e-08    -7.023    -7.049    -0.026     (0)  
   H2O             5.551e+01   9.999e-01     1.744    -0.000     0.000     18.07
C(-4)         1.294e-14
   CH4             1.294e-14   1.295e-14   -13.888   -13.888     0.000     (0)  
C(4)          3.008e-09
   HCO3-           2.411e-09   2.274e-09    -8.618    -8.643    -0.025     (0)  
   CO2             5.725e-10   5.728e-10    -9.242    -9.242     0.000     (0)  
   MgHCO3+         2.238e-11   2.108e-11   -10.650   -10.676    -0.026     (0)  
   CO3-2           1.204e-12   9.519e-13   -11.920   -12.021    -0.102     (0)  
   MgCO3           7.192e-13   7.197e-13   -12.143   -12.143     0.000     (0)  
   CaHCO3+         7.287e-17   6.872e-17   -16.137   -16.163    -0.025     (0)  
   CaCO3           3.785e-18   3.788e-18   -17.422   -17.422     0.000     (0)  
Ca            2.996e-09
   Ca+2            2.996e-09   2.369e-09    -8.523    -8.625    -0.102     (0)  
   CaOH+           3.725e-15   3.509e-15   -14.429   -14.455    -0.026     (0)  
   CaHCO3+         7.287e-17   6.872e-17   -16.137   -16.163    -0.025     (0)  
   CaCO3           3.785e-18   3.788e-18   -17.422   -17.422     0.000     (0)  
Cl            2.000e-03
   Cl-             2.000e-03   1.883e-03    -2.699    -2.725    -0.026     (0)  
H(0)          7.792e-11
   H2              3.896e-11   3.899e-11   -10.409   -10.409     0.000     (0)  
Mg            1.000e-03
   Mg+2            1.000e-03   7.923e-04    -3.000    -3.101    -0.101     (0)  
   MgOH+           2.726e-08   2.568e-08    -7.564    -7.590    -0.026     (0)  
   MgHCO3+         2.238e-11   2.108e-11   -10.650   -10.676    -0.026     (0)  
   MgCO3           7.192e-13   7.197e-13   -12.143   -12.143     0.000     (0)  
O(0)          0.000e+00
   O2              0.000e+00   0.000e+00   -71.562   -71.562     0.000     (0)  

------------------------------Saturation indices-------------------------------

	Phase               SI   log IAP   log K(298 K,   1 atm)

	Aragonite       -12.31    -20.65   -8.34  CaCO3
	Calcite         -12.17    -20.65   -8.48  CaCO3
	CH4(g)          -11.04    -13.89   -2.84  CH4
	CO2(g)           -7.77     -9.24   -1.47  CO2
	Dolomite(dis)   -18.68    -35.77  -17.09  CaMg(CO3)2
	H2(g)            -7.22     35.78   43.00  H2
	O2(g)           -68.67    -71.56   -2.89  O2


------------------
End of simulation.
------------------

------------------------------------
Reading input data for simulation 3.
------------------------------------

	SOLUTION 3 #New Version 
	units mol/kgw 
	temp 25.000000 
	C(4)       8.747369567858e-09     # comp 
	Ca       8.512383303643e-09     # comp 
	Mg       9.999886633295e-04     # comp 
	Cl       1.999976657494e-03     # comp 
	pH       6.963635429243e+00 charge        # comp 
	pe       -3.333132231075e+00       # comp 
	EQUILIBRIUM_PHASES   3
	Calcite 0.000000000000e+00  0.000000000000e+00       # comp 
	KINETICS 3
	Dolomite(dis)  # comp
	m 0.000000000000e+00
	steps 1.000000000000e+02 in 1 steps
	RATES 3
	Dolomite(dis)
	  start
	rem kmech = k25*exp(-Eact/R*(1/T-1/298.15))*Product([Ci]^nyi)
	10  R = 8.314472
	11  deltaT = 1/TK - 1/298.15
	12  e = 2.7183
	13  Ea = 36100
	14  logK25 = -3.19
	15  ny = 0.5
	rem 16  mech_a = (10^logK25) * (e^(-Ea/R*deltaT)) * ACT("H+")^ny
	16  mech_a = (10^logK25) * ACT("H+")^ny
	23  Ea = 52200
	24  logK25 = -7.53
	rem 26  mech_b = (10^logK25) * (e^(-Ea/R*deltaT)) 
	26  mech_b = (10^logK25) 
	30  rate = mech_a + mech_b
	40  teta = 1 
	41  eta = 1
	42  Area = .001
	70  rate = Area * rate * (1 - SR("Dolomite(dis)")^teta)^eta
	80  moles = rate * time
	100 save moles
	      end
	END
-------------------------------------------
Beginning of initial solution calculations.
-------------------------------------------

Initial solution 3.	

-----------------------------Solution composition------------------------------

	Elements           Molality       Moles

	C(4)              8.747e-09   8.747e-09
	Ca                8.512e-09   8.512e-09
	Cl                2.000e-03   2.000e-03
	Mg                1.000e-03   1.000e-03

----------------------------Description of solution----------------------------

                                       pH  =   6.963      Charge balance
                                       pe  =  -3.333    
                        Activity of water  =   1.000
                           Ionic strength  =   3.000e-03
                       Mass of water (kg)  =   1.000e+00
                 Total alkalinity (eq/kg)  =   1.769e-08
                       Total CO2 (mol/kg)  =   8.747e-09
                      Temperature (deg C)  =  25.00
                  Electrical balance (eq)  =   1.909e-16
 Percent error, 100*(Cat-|An|)/(Cat+|An|)  =   0.00
                               Iterations  =   4
                                  Total H  = 1.110124e+02
                                  Total O  = 5.550622e+01

----------------------------Distribution of species----------------------------

                                               Log       Log       Log    mole V
   Species          Molality    Activity  Molality  Activity     Gamma   cm3/mol

   H+              1.151e-07   1.089e-07    -6.939    -6.963    -0.024      0.00
   OH-             9.764e-08   9.191e-08    -7.010    -7.037    -0.026     (0)  
   H2O             5.551e+01   9.999e-01     1.744    -0.000     0.000     18.07
C(4)          8.747e-09
   HCO3-           7.049e-09   6.648e-09    -8.152    -8.177    -0.025     (0)  
   CO2             1.627e-09   1.628e-09    -8.789    -8.788     0.000     (0)  
   MgHCO3+         6.544e-11   6.163e-11   -10.184   -10.210    -0.026     (0)  
   CO3-2           3.619e-12   2.862e-12   -11.441   -11.543    -0.102     (0)  
   MgCO3           2.163e-12   2.164e-12   -11.665   -11.665     0.000     (0)  
   CaHCO3+         6.053e-16   5.708e-16   -15.218   -15.243    -0.025     (0)  
   CaCO3           3.234e-17   3.236e-17   -16.490   -16.490     0.000     (0)  
Ca            8.512e-09
   Ca+2            8.512e-09   6.730e-09    -8.070    -8.172    -0.102     (0)  
   CaOH+           1.089e-14   1.025e-14   -13.963   -13.989    -0.026     (0)  
   CaHCO3+         6.053e-16   5.708e-16   -15.218   -15.243    -0.025     (0)  
   CaCO3           3.234e-17   3.236e-17   -16.490   -16.490     0.000     (0)  
Cl            2.000e-03
   Cl-             2.000e-03   1.883e-03    -2.699    -2.725    -0.026     (0)  
H(0)          7.784e-11
   H2              3.892e-11   3.894e-11   -10.410   -10.410     0.000     (0)  
Mg            1.000e-03
   Mg+2            1.000e-03   7.923e-04    -3.000    -3.101    -0.101     (0)  
   MgOH+           2.804e-08   2.641e-08    -7.552    -7.578    -0.026     (0)  
   MgHCO3+         6.544e-11   6.163e-11   -10.184   -10.210    -0.026     (0)  
   MgCO3           2.163e-12   2.164e-12   -11.665   -11.665     0.000     (0)  
O(0)          0.000e+00
   O2              0.000e+00   0.000e+00   -71.561   -71.561     0.000     (0)  

------------------------------Saturation indices-------------------------------

	Phase               SI   log IAP   log K(298 K,   1 atm)

	Aragonite       -11.38    -19.72   -8.34  CaCO3
	Calcite         -11.24    -19.72   -8.48  CaCO3
	CO2(g)           -7.32     -8.79   -1.47  CO2
	Dolomite(dis)   -17.27    -34.36  -17.09  CaMg(CO3)2
	H2(g)            -7.22     35.78   43.00  H2
	O2(g)           -68.67    -71.56   -2.89  O2


-----------------------------------------
Beginning of batch-reaction calculations.
-----------------------------------------

Reaction step 1.

Using solution 3.	
Using pure phase assemblage 3.	
Using kinetics 3.	

Kinetics 3.	

	Time step: 100 seconds

	Rate name       Delta Moles Total Moles   Reactant        Coefficient

	Dolomite(dis)    -0.000e+00   0.000e+00   Dolomite(dis)             1

-------------------------------Phase assemblage--------------------------------

                                                      Moles in assemblage
Phase               SI  log IAP  log K(T, P)   Initial       Final       Delta

Calcite         -11.24   -19.72     -8.48    0.000e+00           0   0.000e+00

-----------------------------Solution composition------------------------------

	Elements           Molality       Moles

	C                 8.747e-09   8.747e-09
	Ca                8.512e-09   8.512e-09
	Cl                2.000e-03   2.000e-03
	Mg                1.000e-03   1.000e-03

----------------------------Description of solution----------------------------

                                       pH  =   6.963      Charge balance
                                       pe  =  -3.332      Adjusted to redox equilibrium
                        Activity of water  =   1.000
                           Ionic strength  =   3.000e-03
                       Mass of water (kg)  =   1.000e+00
                 Total alkalinity (eq/kg)  =   1.769e-08
                       Total CO2 (mol/kg)  =   8.747e-09
                      Temperature (deg C)  =  25.00
                  Electrical balance (eq)  =   1.991e-16
 Percent error, 100*(Cat-|An|)/(Cat+|An|)  =   0.00
                               Iterations  =   5
                                  Total H  = 1.110124e+02
                                  Total O  = 5.550622e+01

----------------------------Distribution of species----------------------------

                                               Log       Log       Log    mole V
   Species          Molality    Activity  Molality  Activity     Gamma   cm3/mol

   H+              1.151e-07   1.089e-07    -6.939    -6.963    -0.024      0.00
   OH-             9.764e-08   9.191e-08    -7.010    -7.037    -0.026     (0)  
   H2O             5.551e+01   9.999e-01     1.744    -0.000     0.000     18.07
C(-4)         3.609e-14
   CH4             3.609e-14   3.612e-14   -13.443   -13.442     0.000     (0)  
C(4)          8.747e-09
   HCO3-           7.049e-09   6.648e-09    -8.152    -8.177    -0.025     (0)  
   CO2             1.627e-09   1.628e-09    -8.789    -8.788     0.000     (0)  
   MgHCO3+         6.544e-11   6.163e-11   -10.184   -10.210    -0.026     (0)  
   CO3-2           3.619e-12   2.862e-12   -11.441   -11.543    -0.102     (0)  
   MgCO3           2.163e-12   2.164e-12   -11.665   -11.665     0.000     (0)  
   CaHCO3+         6.053e-16   5.708e-16   -15.218   -15.243    -0.025     (0)  
   CaCO3           3.234e-17   3.236e-17   -16.490   -16.490     0.000     (0)  
Ca            8.512e-09
   Ca+2            8.512e-09   6.730e-09    -8.070    -8.172    -0.102     (0)  
   CaOH+           1.089e-14   1.025e-14   -13.963   -13.989    -0.026     (0)  
   CaHCO3+         6.053e-16   5.708e-16   -15.218   -15.243    -0.025     (0)  
   CaCO3           3.234e-17   3.236e-17   -16.490   -16.490     0.000     (0)  
Cl            2.000e-03
   Cl-             2.000e-03   1.883e-03    -2.699    -2.725    -0.026     (0)  
H(0)          7.756e-11
   H2              3.878e-11   3.881e-11   -10.411   -10.411     0.000     (0)  
Mg            1.000e-03
   Mg+2            1.000e-03   7.923e-04    -3.000    -3.101    -0.101     (0)  
   MgOH+           2.804e-08   2.641e-08    -7.552    -7.578    -0.026     (0)  
   MgHCO3+         6.544e-11   6.163e-11   -10.184   -10.210    -0.026     (0)  
   MgCO3           2.163e-12   2.164e-12   -11.665   -11.665     0.000     (0)  
O(0)          0.000e+00
   O2              0.000e+00   0.000e+00   -71.558   -71.558     0.000     (0)  

------------------------------Saturation indices-------------------------------

	Phase               SI   log IAP   log K(298 K,   1 atm)

	Aragonite       -11.38    -19.72   -8.34  CaCO3
	Calcite         -11.24    -19.72   -8.48  CaCO3
	CH4(g)          -10.60    -13.44   -2.84  CH4
	CO2(g)           -7.32     -8.79   -1.47  CO2
	Dolomite(dis)   -17.27    -34.36  -17.09  CaMg(CO3)2
	H2(g)            -7.22     35.78   43.00  H2
	O2(g)           -68.67    -71.56   -2.89  O2


------------------
End of simulation.
------------------

------------------------------------
Reading input data for simulation 4.
------------------------------------

	SOLUTION 4 #New Version 
	units mol/kgw 
	temp 25.000000 
	C(4)       1.900388931247e-08     # comp 
	Ca       1.833547329154e-08     # comp 
	Mg       9.999757381928e-04     # comp 
	Cl       1.999949937767e-03     # comp 
	pH       6.986099851597e+00 charge        # comp 
	pe       -3.356432103540e+00       # comp 
	EQUILIBRIUM_PHASES   4
	Calcite 0.000000000000e+00  0.000000000000e+00       # comp 
	KINETICS 4
	Dolomite(dis)  # comp
	m 0.000000000000e+00
	steps 1.000000000000e+02 in 1 steps
	RATES 4
	Dolomite(dis)
	  start
	rem kmech = k25*exp(-Eact/R*(1/T-1/298.15))*Product([Ci]^nyi)
	10  R = 8.314472
	11  deltaT = 1/TK - 1/298.15
	12  e = 2.7183
	13  Ea = 36100
	14  logK25 = -3.19
	15  ny = 0.5
	rem 16  mech_a = (10^logK25) * (e^(-Ea/R*deltaT)) * ACT("H+")^ny
	16  mech_a = (10^logK25) * ACT("H+")^ny
	23  Ea = 52200
	24  logK25 = -7.53
	rem 26  mech_b = (10^logK25) * (e^(-Ea/R*deltaT)) 
	26  mech_b = (10^logK25) 
	30  rate = mech_a + mech_b
	40  teta = 1 
	41  eta = 1
	42  Area = .001
	70  rate = Area * rate * (1 - SR("Dolomite(dis)")^teta)^eta
	80  moles = rate * time
	100 save moles
	      end
	END
-------------------------------------------
Beginning of initial solution calculations.
-------------------------------------------

Initial solution 4.	

-----------------------------Solution composition------------------------------

	Elements           Molality       Moles

	C(4)              1.900e-08   1.900e-08
	Ca                1.834e-08   1.834e-08
	Cl                2.000e-03   2.000e-03
	Mg                1.000e-03   1.000e-03

----------------------------Description of solution----------------------------

                                       pH  =   6.985      Charge balance
                                       pe  =  -3.356    
                        Activity of water  =   1.000
                           Ionic strength  =   3.000e-03
                       Mass of water (kg)  =   1.000e+00
                 Total alkalinity (eq/kg)  =   3.821e-08
                       Total CO2 (mol/kg)  =   1.900e-08
                      Temperature (deg C)  =  25.00
                  Electrical balance (eq)  =   1.914e-16
 Percent error, 100*(Cat-|An|)/(Cat+|An|)  =   0.00
                               Iterations  =   4
                                  Total H  = 1.110124e+02
                                  Total O  = 5.550622e+01

----------------------------Distribution of species----------------------------

                                               Log       Log       Log    mole V
   Species          Molality    Activity  Molality  Activity     Gamma   cm3/mol

   H+              1.095e-07   1.036e-07    -6.961    -6.985    -0.024      0.00
   OH-             1.026e-07   9.660e-08    -6.989    -7.015    -0.026     (0)  
   H2O             5.551e+01   9.999e-01     1.744    -0.000     0.000     18.07
C(4)          1.900e-08
   HCO3-           1.545e-08   1.457e-08    -7.811    -7.836    -0.025     (0)  
   CO2             3.393e-09   3.396e-09    -8.469    -8.469     0.000     (0)  
   MgHCO3+         1.435e-10   1.351e-10    -9.843    -9.869    -0.026     (0)  
   CO3-2           8.339e-12   6.596e-12   -11.079   -11.181    -0.102     (0)  
   MgCO3           4.983e-12   4.987e-12   -11.302   -11.302     0.000     (0)  
   CaHCO3+         2.858e-15   2.696e-15   -14.544   -14.569    -0.025     (0)  
   CaCO3           1.605e-16   1.606e-16   -15.794   -15.794     0.000     (0)  
Ca            1.834e-08
   Ca+2            1.834e-08   1.450e-08    -7.737    -7.839    -0.102     (0)  
   CaOH+           2.465e-14   2.322e-14   -13.608   -13.634    -0.026     (0)  
   CaHCO3+         2.858e-15   2.696e-15   -14.544   -14.569    -0.025     (0)  
   CaCO3           1.605e-16   1.606e-16   -15.794   -15.794     0.000     (0)  
Cl            2.000e-03
   Cl-             2.000e-03   1.883e-03    -2.699    -2.725    -0.026     (0)  
H(0)          7.843e-11
   H2              3.922e-11   3.924e-11   -10.407   -10.406     0.000     (0)  
Mg            1.000e-03
   Mg+2            9.999e-04   7.923e-04    -3.000    -3.101    -0.101     (0)  
   MgOH+           2.947e-08   2.776e-08    -7.531    -7.557    -0.026     (0)  
   MgHCO3+         1.435e-10   1.351e-10    -9.843    -9.869    -0.026     (0)  
   MgCO3           4.983e-12   4.987e-12   -11.302   -11.302     0.000     (0)  
O(0)          0.000e+00
   O2              0.000e+00   0.000e+00   -71.568   -71.568     0.000     (0)  

------------------------------Saturation indices-------------------------------

	Phase               SI   log IAP   log K(298 K,   1 atm)

	Aragonite       -10.68    -19.02   -8.34  CaCO3
	Calcite         -10.54    -19.02   -8.48  CaCO3
	CO2(g)           -7.00     -8.47   -1.47  CO2
	Dolomite(dis)   -16.21    -33.30  -17.09  CaMg(CO3)2
	H2(g)            -7.21     35.78   43.00  H2
	O2(g)           -68.68    -71.57   -2.89  O2


-----------------------------------------
Beginning of batch-reaction calculations.
-----------------------------------------

Reaction step 1.

Using solution 4.	
Using pure phase assemblage 4.	
Using kinetics 4.	

Kinetics 4.	

	Time step: 100 seconds

	Rate name       Delta Moles Total Moles   Reactant        Coefficient

	Dolomite(dis)    -0.000e+00   0.000e+00   Dolomite(dis)             1

-------------------------------Phase assemblage--------------------------------

                                                      Moles in assemblage
Phase               SI  log IAP  log K(T, P)   Initial       Final       Delta

Calcite         -10.54   -19.02     -8.48    0.000e+00           0   0.000e+00

-----------------------------Solution composition------------------------------

	Elements           Molality       Moles

	C                 1.900e-08   1.900e-08
	Ca                1.834e-08   1.834e-08
	Cl                2.000e-03   2.000e-03
	Mg                1.000e-03   1.000e-03

----------------------------Description of solution----------------------------

                                       pH  =   6.985      Charge balance
                                       pe  =  -3.355      Adjusted to redox equilibrium
                        Activity of water  =   1.000
                           Ionic strength  =   3.000e-03
                       Mass of water (kg)  =   1.000e+00
                 Total alkalinity (eq/kg)  =   3.821e-08
                       Total CO2 (mol/kg)  =   1.900e-08
                      Temperature (deg C)  =  25.00
                  Electrical balance (eq)  =   2.061e-16
 Percent error, 100*(Cat-|An|)/(Cat+|An|)  =   0.00
                               Iterations  =   5
                                  Total H  = 1.110124e+02
                                  Total O  = 5.550622e+01

----------------------------Distribution of species----------------------------

                                               Log       Log       Log    mole V
   Species          Molality    Activity  Molality  Activity     Gamma   cm3/mol

   H+              1.095e-07   1.036e-07    -6.961    -6.985    -0.024      0.00
   OH-             1.026e-07   9.660e-08    -6.989    -7.015    -0.026     (0)  
   H2O             5.551e+01   9.999e-01     1.744    -0.000     0.000     18.07
C(-4)         7.640e-14
   CH4             7.640e-14   7.646e-14   -13.117   -13.117     0.000     (0)  
C(4)          1.900e-08
   HCO3-           1.545e-08   1.457e-08    -7.811    -7.836    -0.025     (0)  
   CO2             3.393e-09   3.396e-09    -8.469    -8.469     0.000     (0)  
   MgHCO3+         1.435e-10   1.351e-10    -9.843    -9.869    -0.026     (0)  
   CO3-2           8.339e-12   6.596e-12   -11.079   -11.181    -0.102     (0)  
   MgCO3           4.983e-12   4.987e-12   -11.302   -11.302     0.000     (0)  
   CaHCO3+         2.858e-15   2.695e-15   -14.544   -14.569    -0.025     (0)  
   CaCO3           1.605e-16   1.606e-16   -15.794   -15.794     0.000     (0)  
Ca            1.834e-08
   Ca+2            1.834e-08   1.450e-08    -7.737    -7.839    -0.102     (0)  
   CaOH+           2.465e-14   2.322e-14   -13.608   -13.634    -0.026     (0)  
   CaHCO3+         2.858e-15   2.695e-15   -14.544   -14.569    -0.025     (0)  
   CaCO3           1.605e-16   1.606e-16   -15.794   -15.794     0.000     (0)  
Cl            2.000e-03
   Cl-             2.000e-03   1.883e-03    -2.699    -2.725    -0.026     (0)  
H(0)          7.785e-11
   H2              3.893e-11   3.895e-11   -10.410   -10.409     0.000     (0)  
Mg            1.000e-03
   Mg+2            9.999e-04   7.923e-04    -3.000    -3.101    -0.101     (0)  
   MgOH+           2.947e-08   2.776e-08    -7.531    -7.557    -0.026     (0)  
   MgHCO3+         1.435e-10   1.351e-10    -9.843    -9.869    -0.026     (0)  
   MgCO3           4.983e-12   4.987e-12   -11.302   -11.302     0.000     (0)  
O(0)          0.000e+00
   O2              0.000e+00   0.000e+00   -71.561   -71.561     0.000     (0)  

------------------------------Saturation indices-------------------------------

	Phase               SI   log IAP   log K(298 K,   1 atm)

	Aragonite       -10.68    -19.02   -8.34  CaCO3
	Calcite         -10.54    -19.02   -8.48  CaCO3
	CH4(g)          -10.27    -13.12   -2.84  CH4
	CO2(g)           -7.00     -8.47   -1.47  CO2
	Dolomite(dis)   -16.21    -33.30  -17.09  CaMg(CO3)2
	H2(g)            -7.22     35.78   43.00  H2
	O2(g)           -68.67    -71.56   -2.89  O2


------------------
End of simulation.
------------------

------------------------------------
Reading input data for simulation 5.
------------------------------------

	SOLUTION 5 #New Version 
	units mol/kgw 
	temp 25.000000 
	C(4)       3.656948090370e-08     # comp 
	Ca       3.507073916340e-08     # comp 
	Mg       9.999543144739e-04     # comp 
	Cl       1.999905425826e-03     # comp 
	pH       7.023642376272e+00 charge        # comp 
	pe       -3.395511424665e+00       # comp 
	EQUILIBRIUM_PHASES   5
	Calcite 0.000000000000e+00  0.000000000000e+00       # comp 
	KINETICS 5
	Dolomite(dis)  # comp
	m 0.000000000000e+00
	steps 1.000000000000e+02 in 1 steps
	RATES 5
	Dolomite(dis)
	  start
	rem kmech = k25*exp(-Eact/R*(1/T-1/298.15))*Product([Ci]^nyi)
	10  R = 8.314472
	11  deltaT = 1/TK - 1/298.15
	12  e = 2.7183
	13  Ea = 36100
	14  logK25 = -3.19
	15  ny = 0.5
	rem 16  mech_a = (10^logK25) * (e^(-Ea/R*deltaT)) * ACT("H+")^ny
	16  mech_a = (10^logK25) * ACT("H+")^ny
	23  Ea = 52200
	24  logK25 = -7.53
	rem 26  mech_b = (10^logK25) * (e^(-Ea/R*deltaT)) 
	26  mech_b = (10^logK25) 
	30  rate = mech_a + mech_b
	40  teta = 1 
	41  eta = 1
	42  Area = .001
	70  rate = Area * rate * (1 - SR("Dolomite(dis)")^teta)^eta
	80  moles = rate * time
	100 save moles
	      end
	END
-------------------------------------------
Beginning of initial solution calculations.
-------------------------------------------

Initial solution 5.	

-----------------------------Solution composition------------------------------

	Elements           Molality       Moles

	C(4)              3.657e-08   3.657e-08
	Ca                3.507e-08   3.507e-08
	Cl                2.000e-03   2.000e-03
	Mg                1.000e-03   1.000e-03

----------------------------Description of solution----------------------------

                                       pH  =   7.021      Charge balance
                                       pe  =  -3.396    
                        Activity of water  =   1.000
                           Ionic strength  =   3.000e-03
                       Mass of water (kg)  =   1.000e+00
                 Total alkalinity (eq/kg)  =   7.334e-08
                       Total CO2 (mol/kg)  =   3.657e-08
                      Temperature (deg C)  =  25.00
                  Electrical balance (eq)  =   1.940e-16
 Percent error, 100*(Cat-|An|)/(Cat+|An|)  =   0.00
                               Iterations  =   4
                                  Total H  = 1.110124e+02
                                  Total O  = 5.550622e+01

----------------------------Distribution of species----------------------------

                                               Log       Log       Log    mole V
   Species          Molality    Activity  Molality  Activity     Gamma   cm3/mol

   OH-             1.116e-07   1.050e-07    -6.952    -6.979    -0.026     (0)  
   H+              1.008e-07   9.533e-08    -6.997    -7.021    -0.024      0.00
   H2O             5.551e+01   9.999e-01     1.744    -0.000     0.000     18.07
C(4)          3.657e-08
   HCO3-           3.017e-08   2.845e-08    -7.520    -7.546    -0.025     (0)  
   CO2             6.094e-09   6.098e-09    -8.215    -8.215     0.000     (0)  
   MgHCO3+         2.800e-10   2.637e-10    -9.553    -9.579    -0.026     (0)  
   CO3-2           1.769e-11   1.400e-11   -10.752   -10.854    -0.102     (0)  
   MgCO3           1.057e-11   1.058e-11   -10.976   -10.975     0.000     (0)  
   CaHCO3+         1.067e-14   1.006e-14   -13.972   -13.997    -0.025     (0)  
   CaCO3           6.515e-16   6.519e-16   -15.186   -15.186     0.000     (0)  
Ca            3.507e-08
   Ca+2            3.507e-08   2.773e-08    -7.455    -7.557    -0.102     (0)  
   CaOH+           5.125e-14   4.827e-14   -13.290   -13.316    -0.026     (0)  
   CaHCO3+         1.067e-14   1.006e-14   -13.972   -13.997    -0.025     (0)  
   CaCO3           6.515e-16   6.519e-16   -15.186   -15.186     0.000     (0)  
Cl            2.000e-03
   Cl-             2.000e-03   1.883e-03    -2.699    -2.725    -0.026     (0)  
H(0)          7.947e-11
   H2              3.974e-11   3.976e-11   -10.401   -10.401     0.000     (0)  
Mg            1.000e-03
   Mg+2            9.999e-04   7.923e-04    -3.000    -3.101    -0.101     (0)  
   MgOH+           3.204e-08   3.017e-08    -7.494    -7.520    -0.026     (0)  
   MgHCO3+         2.800e-10   2.637e-10    -9.553    -9.579    -0.026     (0)  
   MgCO3           1.057e-11   1.058e-11   -10.976   -10.975     0.000     (0)  
O(0)          0.000e+00
   O2              0.000e+00   0.000e+00   -71.579   -71.579     0.000     (0)  

------------------------------Saturation indices-------------------------------

	Phase               SI   log IAP   log K(298 K,   1 atm)

	Aragonite       -10.08    -18.41   -8.34  CaCO3
	Calcite          -9.93    -18.41   -8.48  CaCO3
	CO2(g)           -6.75     -8.21   -1.47  CO2
	Dolomite(dis)   -15.28    -32.37  -17.09  CaMg(CO3)2
	H2(g)            -7.21     35.79   43.00  H2
	O2(g)           -68.69    -71.58   -2.89  O2


-----------------------------------------
Beginning of batch-reaction calculations.
-----------------------------------------

Reaction step 1.

Using solution 5.	
Using pure phase assemblage 5.	
Using kinetics 5.	

Kinetics 5.	

	Time step: 100 seconds

	Rate name       Delta Moles Total Moles   Reactant        Coefficient

	Dolomite(dis)    -0.000e+00   0.000e+00   Dolomite(dis)             1

-------------------------------Phase assemblage--------------------------------

                                                      Moles in assemblage
Phase               SI  log IAP  log K(T, P)   Initial       Final       Delta

Calcite          -9.93   -18.41     -8.48    0.000e+00           0   0.000e+00

-----------------------------Solution composition------------------------------

	Elements           Molality       Moles

	C                 3.657e-08   3.657e-08
	Ca                3.507e-08   3.507e-08
	Cl                2.000e-03   2.000e-03
	Mg                1.000e-03   1.000e-03

----------------------------Description of solution----------------------------

                                       pH  =   7.021      Charge balance
                                       pe  =  -3.392      Adjusted to redox equilibrium
                        Activity of water  =   1.000
                           Ionic strength  =   3.000e-03
                       Mass of water (kg)  =   1.000e+00
                 Total alkalinity (eq/kg)  =   7.334e-08
                       Total CO2 (mol/kg)  =   3.657e-08
                      Temperature (deg C)  =  25.00
                  Electrical balance (eq)  =   1.930e-16
 Percent error, 100*(Cat-|An|)/(Cat+|An|)  =   0.00
                               Iterations  =   6
                                  Total H  = 1.110124e+02
                                  Total O  = 5.550622e+01

----------------------------Distribution of species----------------------------

                                               Log       Log       Log    mole V
   Species          Molality    Activity  Molality  Activity     Gamma   cm3/mol

   OH-             1.116e-07   1.050e-07    -6.952    -6.979    -0.026     (0)  
   H+              1.008e-07   9.533e-08    -6.997    -7.021    -0.024      0.00
   H2O             5.551e+01   9.999e-01     1.744    -0.000     0.000     18.07
C(-4)         1.408e-13
   CH4             1.408e-13   1.409e-13   -12.851   -12.851     0.000     (0)  
C(4)          3.657e-08
   HCO3-           3.017e-08   2.845e-08    -7.520    -7.546    -0.025     (0)  
   CO2             6.094e-09   6.098e-09    -8.215    -8.215     0.000     (0)  
   MgHCO3+         2.800e-10   2.637e-10    -9.553    -9.579    -0.026     (0)  
   CO3-2           1.769e-11   1.400e-11   -10.752   -10.854    -0.102     (0)  
   MgCO3           1.057e-11   1.058e-11   -10.976   -10.975     0.000     (0)  
   CaHCO3+         1.067e-14   1.006e-14   -13.972   -13.997    -0.025     (0)  
   CaCO3           6.515e-16   6.519e-16   -15.186   -15.186     0.000     (0)  
Ca            3.507e-08
   Ca+2            3.507e-08   2.773e-08    -7.455    -7.557    -0.102     (0)  
   CaOH+           5.125e-14   4.827e-14   -13.290   -13.316    -0.026     (0)  
   CaHCO3+         1.067e-14   1.006e-14   -13.972   -13.997    -0.025     (0)  
   CaCO3           6.515e-16   6.519e-16   -15.186   -15.186     0.000     (0)  
Cl            2.000e-03
   Cl-             2.000e-03   1.883e-03    -2.699    -2.725    -0.026     (0)  
H(0)          7.836e-11
   H2              3.918e-11   3.921e-11   -10.407   -10.407     0.000     (0)  
Mg            1.000e-03
   Mg+2            9.999e-04   7.923e-04    -3.000    -3.101    -0.101     (0)  
   MgOH+           3.204e-08   3.017e-08    -7.494    -7.520    -0.026     (0)  
   MgHCO3+         2.800e-10   2.637e-10    -9.553    -9.579    -0.026     (0)  
   MgCO3           1.057e-11   1.058e-11   -10.976   -10.975     0.000     (0)  
O(0)          0.000e+00
   O2              0.000e+00   0.000e+00   -71.567   -71.567     0.000     (0)  

------------------------------Saturation indices-------------------------------

	Phase               SI   log IAP   log K(298 K,   1 atm)

	Aragonite       -10.08    -18.41   -8.34  CaCO3
	Calcite          -9.93    -18.41   -8.48  CaCO3
	CH4(g)          -10.01    -12.85   -2.84  CH4
	CO2(g)           -6.75     -8.21   -1.47  CO2
	Dolomite(dis)   -15.28    -32.37  -17.09  CaMg(CO3)2
	H2(g)            -7.21     35.78   43.00  H2
	O2(g)           -68.67    -71.57   -2.89  O2


------------------
End of simulation.
------------------

------------------------------------
Reading input data for simulation 6.
------------------------------------

	SOLUTION 6 #New Version 
	units mol/kgw 
	temp 25.000000 
	C(4)       6.577730758687e-08     # comp 
	Ca       6.269960369934e-08     # comp 
	Mg       9.999201897171e-04     # comp 
	Cl       1.999834013110e-03     # comp 
	pH       7.083210260829e+00 charge        # comp 
	pe       -3.457897191097e+00       # comp 
	EQUILIBRIUM_PHASES   6
	Calcite 0.000000000000e+00  0.000000000000e+00       # comp 
	KINETICS 6
	Dolomite(dis)  # comp
	m 0.000000000000e+00
	steps 1.000000000000e+02 in 1 steps
	RATES 6
	Dolomite(dis)
	  start
	rem kmech = k25*exp(-Eact/R*(1/T-1/298.15))*Product([Ci]^nyi)
	10  R = 8.314472
	11  deltaT = 1/TK - 1/298.15
	12  e = 2.7183
	13  Ea = 36100
	14  logK25 = -3.19
	15  ny = 0.5
	rem 16  mech_a = (10^logK25) * (e^(-Ea/R*deltaT)) * ACT("H+")^ny
	16  mech_a = (10^logK25) * ACT("H+")^ny
	23  Ea = 52200
	24  logK25 = -7.53
	rem 26  mech_b = (10^logK25) * (e^(-Ea/R*deltaT)) 
	26  mech_b = (10^logK25) 
	30  rate = mech_a + mech_b
	40  teta = 1 
	41  eta = 1
	42  Area = .001
	70  rate = Area * rate * (1 - SR("Dolomite(dis)")^teta)^eta
	80  moles = rate * time
	100 save moles
	      end
	END
-------------------------------------------
Beginning of initial solution calculations.
-------------------------------------------

Initial solution 6.	

-----------------------------Solution composition------------------------------

	Elements           Molality       Moles

	C(4)              6.578e-08   6.578e-08
	Ca                6.270e-08   6.270e-08
	Cl                2.000e-03   2.000e-03
	Mg                9.999e-04   9.999e-04

----------------------------Description of solution----------------------------

                                       pH  =   7.078      Charge balance
                                       pe  =  -3.458    
                        Activity of water  =   1.000
                           Ionic strength  =   3.000e-03
                       Mass of water (kg)  =   1.000e+00
                 Total alkalinity (eq/kg)  =   1.318e-07
                       Total CO2 (mol/kg)  =   6.578e-08
                      Temperature (deg C)  =  25.00
                  Electrical balance (eq)  =   1.904e-16
 Percent error, 100*(Cat-|An|)/(Cat+|An|)  =   0.00
                               Iterations  =   4
                                  Total H  = 1.110124e+02
                                  Total O  = 5.550622e+01

----------------------------Distribution of species----------------------------

                                               Log       Log       Log    mole V
   Species          Molality    Activity  Molality  Activity     Gamma   cm3/mol

   OH-             1.274e-07   1.199e-07    -6.895    -6.921    -0.026     (0)  
   H+              8.824e-08   8.349e-08    -7.054    -7.078    -0.024      0.00
   H2O             5.551e+01   9.999e-01     1.744    -0.000     0.000     18.07
C(4)          6.578e-08
   HCO3-           5.540e-08   5.225e-08    -7.256    -7.282    -0.025     (0)  
   CO2             9.801e-09   9.808e-09    -8.009    -8.008     0.000     (0)  
   MgHCO3+         5.143e-10   4.843e-10    -9.289    -9.315    -0.026     (0)  
   CO3-2           3.711e-11   2.935e-11   -10.431   -10.532    -0.102     (0)  
   MgCO3           2.217e-11   2.219e-11   -10.654   -10.654     0.000     (0)  
   CaHCO3+         3.504e-14   3.305e-14   -13.455   -13.481    -0.025     (0)  
   CaCO3           2.442e-15   2.444e-15   -14.612   -14.612     0.000     (0)  
Ca            6.270e-08
   Ca+2            6.270e-08   4.957e-08    -7.203    -7.305    -0.102     (0)  
   CaOH+           1.046e-13   9.854e-14   -12.980   -13.006    -0.026     (0)  
   CaHCO3+         3.504e-14   3.305e-14   -13.455   -13.481    -0.025     (0)  
   CaCO3           2.442e-15   2.444e-15   -14.612   -14.612     0.000     (0)  
Cl            2.000e-03
   Cl-             2.000e-03   1.883e-03    -2.699    -2.725    -0.026     (0)  
H(0)          8.123e-11
   H2              4.062e-11   4.065e-11   -10.391   -10.391     0.000     (0)  
Mg            9.999e-04
   Mg+2            9.999e-04   7.923e-04    -3.000    -3.101    -0.101     (0)  
   MgOH+           3.658e-08   3.445e-08    -7.437    -7.463    -0.026     (0)  
   MgHCO3+         5.143e-10   4.843e-10    -9.289    -9.315    -0.026     (0)  
   MgCO3           2.217e-11   2.219e-11   -10.654   -10.654     0.000     (0)  
O(0)          0.000e+00
   O2              0.000e+00   0.000e+00   -71.598   -71.598     0.000     (0)  

------------------------------Saturation indices-------------------------------

	Phase               SI   log IAP   log K(298 K,   1 atm)

	Aragonite        -9.50    -17.84   -8.34  CaCO3
	Calcite          -9.36    -17.84   -8.48  CaCO3
	CO2(g)           -6.54     -8.01   -1.47  CO2
	Dolomite(dis)   -14.38    -31.47  -17.09  CaMg(CO3)2
	H2(g)            -7.20     35.80   43.00  H2
	O2(g)           -68.71    -71.60   -2.89  O2


-----------------------------------------
Beginning of batch-reaction calculations.
-----------------------------------------

Reaction step 1.

Using solution 6.	
Using pure phase assemblage 6.	
Using kinetics 6.	

Kinetics 6.	

	Time step: 100 seconds

	Rate name       Delta Moles Total Moles   Reactant        Coefficient

	Dolomite(dis)    -0.000e+00   0.000e+00   Dolomite(dis)             1

-------------------------------Phase assemblage--------------------------------

                                                      Moles in assemblage
Phase               SI  log IAP  log K(T, P)   Initial       Final       Delta

Calcite          -9.36   -17.84     -8.48    0.000e+00           0   0.000e+00

-----------------------------Solution composition------------------------------

	Elements           Molality       Moles

	C                 6.578e-08   6.578e-08
	Ca                6.270e-08   6.270e-08
	Cl                2.000e-03   2.000e-03
	Mg                9.999e-04   9.999e-04

----------------------------Description of solution----------------------------

                                       pH  =   7.078      Charge balance
                                       pe  =  -3.453      Adjusted to redox equilibrium
                        Activity of water  =   1.000
                           Ionic strength  =   3.000e-03
                       Mass of water (kg)  =   1.000e+00
                 Total alkalinity (eq/kg)  =   1.318e-07
                       Total CO2 (mol/kg)  =   6.578e-08
                      Temperature (deg C)  =  25.00
                  Electrical balance (eq)  =   1.930e-16
 Percent error, 100*(Cat-|An|)/(Cat+|An|)  =   0.00
                               Iterations  =   6
                                  Total H  = 1.110124e+02
                                  Total O  = 5.550622e+01

----------------------------Distribution of species----------------------------

                                               Log       Log       Log    mole V
   Species          Molality    Activity  Molality  Activity     Gamma   cm3/mol

   OH-             1.274e-07   1.199e-07    -6.895    -6.921    -0.026     (0)  
   H+              8.824e-08   8.349e-08    -7.054    -7.078    -0.024      0.00
   H2O             5.551e+01   9.999e-01     1.744    -0.000     0.000     18.07
C(-4)         2.379e-13
   CH4             2.379e-13   2.381e-13   -12.624   -12.623     0.000     (0)  
C(4)          6.578e-08
   HCO3-           5.540e-08   5.225e-08    -7.256    -7.282    -0.025     (0)  
   CO2             9.801e-09   9.808e-09    -8.009    -8.008     0.000     (0)  
   MgHCO3+         5.143e-10   4.843e-10    -9.289    -9.315    -0.026     (0)  
   CO3-2           3.711e-11   2.935e-11   -10.431   -10.532    -0.102     (0)  
   MgCO3           2.217e-11   2.219e-11   -10.654   -10.654     0.000     (0)  
   CaHCO3+         3.504e-14   3.305e-14   -13.455   -13.481    -0.025     (0)  
   CaCO3           2.442e-15   2.444e-15   -14.612   -14.612     0.000     (0)  
Ca            6.270e-08
   Ca+2            6.270e-08   4.957e-08    -7.203    -7.305    -0.102     (0)  
   CaOH+           1.046e-13   9.854e-14   -12.980   -13.006    -0.026     (0)  
   CaHCO3+         3.504e-14   3.305e-14   -13.455   -13.481    -0.025     (0)  
   CaCO3           2.442e-15   2.444e-15   -14.612   -14.612     0.000     (0)  
Cl            2.000e-03
   Cl-             2.000e-03   1.883e-03    -2.699    -2.725    -0.026     (0)  
H(0)          7.933e-11
   H2              3.966e-11   3.969e-11   -10.402   -10.401     0.000     (0)  
Mg            9.999e-04
   Mg+2            9.999e-04   7.923e-04    -3.000    -3.101    -0.101     (0)  
   MgOH+           3.658e-08   3.445e-08    -7.437    -7.463    -0.026     (0)  
   MgHCO3+         5.143e-10   4.843e-10    -9.289    -9.315    -0.026     (0)  
   MgCO3           2.217e-11   2.219e-11   -10.654   -10.654     0.000     (0)  
O(0)          0.000e+00
   O2              0.000e+00   0.000e+00   -71.578   -71.577     0.000     (0)  

------------------------------Saturation indices-------------------------------

	Phase               SI   log IAP   log K(298 K,   1 atm)

	Aragonite        -9.50    -17.84   -8.34  CaCO3
	Calcite          -9.36    -17.84   -8.48  CaCO3
	CH4(g)           -9.78    -12.62   -2.84  CH4
	CO2(g)           -6.54     -8.01   -1.47  CO2
	Dolomite(dis)   -14.38    -31.47  -17.09  CaMg(CO3)2
	H2(g)            -7.21     35.79   43.00  H2
	O2(g)           -68.69    -71.58   -2.89  O2


------------------
End of simulation.
------------------

------------------------------------
Reading input data for simulation 7.
------------------------------------

	SOLUTION 7 #New Version 
	units mol/kgw 
	temp 25.000000 
	C(4)       1.132819646851e-07     # comp 
	Ca       1.072355436696e-07     # comp 
	Mg       9.998675754457e-04     # comp 
	Cl       1.999722840468e-03     # comp 
	pH       7.171952848406e+00 charge        # comp 
	pe       -3.549423417366e+00       # comp 
	EQUILIBRIUM_PHASES   7
	Calcite 0.000000000000e+00  0.000000000000e+00       # comp 
	KINETICS 7
	Dolomite(dis)  # comp
	m 0.000000000000e+00
	steps 1.000000000000e+02 in 1 steps
	RATES 7
	Dolomite(dis)
	  start
	rem kmech = k25*exp(-Eact/R*(1/T-1/298.15))*Product([Ci]^nyi)
	10  R = 8.314472
	11  deltaT = 1/TK - 1/298.15
	12  e = 2.7183
	13  Ea = 36100
	14  logK25 = -3.19
	15  ny = 0.5
	rem 16  mech_a = (10^logK25) * (e^(-Ea/R*deltaT)) * ACT("H+")^ny
	16  mech_a = (10^logK25) * ACT("H+")^ny
	23  Ea = 52200
	24  logK25 = -7.53
	rem 26  mech_b = (10^logK25) * (e^(-Ea/R*deltaT)) 
	26  mech_b = (10^logK25) 
	30  rate = mech_a + mech_b
	40  teta = 1 
	41  eta = 1
	42  Area = .001
	70  rate = Area * rate * (1 - SR("Dolomite(dis)")^teta)^eta
	80  moles = rate * time
	100 save moles
	      end
	END
-------------------------------------------
Beginning of initial solution calculations.
-------------------------------------------

Initial solution 7.	

-----------------------------Solution composition------------------------------

	Elements           Molality       Moles

	C(4)              1.133e-07   1.133e-07
	Ca                1.072e-07   1.072e-07
	Cl                2.000e-03   2.000e-03
	Mg                9.999e-04   9.999e-04

----------------------------Description of solution----------------------------

                                       pH  =   7.165      Charge balance
                                       pe  =  -3.549    
                        Activity of water  =   1.000
                           Ionic strength  =   3.000e-03
                       Mass of water (kg)  =   1.000e+00
                 Total alkalinity (eq/kg)  =   2.268e-07
                       Total CO2 (mol/kg)  =   1.133e-07
                      Temperature (deg C)  =  25.00
                  Electrical balance (eq)  =   1.917e-16
 Percent error, 100*(Cat-|An|)/(Cat+|An|)  =   0.00
                               Iterations  =   4
                                  Total H  = 1.110124e+02
                                  Total O  = 5.550622e+01

----------------------------Distribution of species----------------------------

                                               Log       Log       Log    mole V
   Species          Molality    Activity  Molality  Activity     Gamma   cm3/mol

   OH-             1.553e-07   1.462e-07    -6.809    -6.835    -0.026     (0)  
   H+              7.236e-08   6.846e-08    -7.141    -7.165    -0.024      0.00
   H2O             5.551e+01   9.999e-01     1.744    -0.000     0.000     18.07
C(4)          1.133e-07
   HCO3-           9.802e-08   9.244e-08    -7.009    -7.034    -0.025     (0)  
   CO2             1.422e-08   1.423e-08    -7.847    -7.847     0.000     (0)  
   MgHCO3+         9.098e-10   8.569e-10    -9.041    -9.067    -0.026     (0)  
   CO3-2           8.006e-11   6.333e-11   -10.097   -10.198    -0.102     (0)  
   MgCO3           4.784e-11   4.787e-11   -10.320   -10.320     0.000     (0)  
   CaHCO3+         1.060e-13   1.000e-13   -12.975   -13.000    -0.025     (0)  
   CaCO3           9.013e-15   9.019e-15   -14.045   -14.045     0.000     (0)  
Ca            1.072e-07
   Ca+2            1.072e-07   8.478e-08    -6.970    -7.072    -0.102     (0)  
   CaOH+           2.182e-13   2.055e-13   -12.661   -12.687    -0.026     (0)  
   CaHCO3+         1.060e-13   1.000e-13   -12.975   -13.000    -0.025     (0)  
   CaCO3           9.013e-15   9.019e-15   -14.045   -14.045     0.000     (0)  
Cl            2.000e-03
   Cl-             2.000e-03   1.882e-03    -2.699    -2.725    -0.026     (0)  
H(0)          8.326e-11
   H2              4.163e-11   4.166e-11   -10.381   -10.380     0.000     (0)  
Mg            9.999e-04
   Mg+2            9.998e-04   7.922e-04    -3.000    -3.101    -0.101     (0)  
   MgOH+           4.461e-08   4.201e-08    -7.351    -7.377    -0.026     (0)  
   MgHCO3+         9.098e-10   8.569e-10    -9.041    -9.067    -0.026     (0)  
   MgCO3           4.784e-11   4.787e-11   -10.320   -10.320     0.000     (0)  
O(0)          0.000e+00
   O2              0.000e+00   0.000e+00   -71.620   -71.619     0.000     (0)  

------------------------------Saturation indices-------------------------------

	Phase               SI   log IAP   log K(298 K,   1 atm)

	Aragonite        -8.93    -17.27   -8.34  CaCO3
	Calcite          -8.79    -17.27   -8.48  CaCO3
	CO2(g)           -6.38     -7.85   -1.47  CO2
	Dolomite(dis)   -13.48    -30.57  -17.09  CaMg(CO3)2
	H2(g)            -7.19     35.81   43.00  H2
	O2(g)           -68.73    -71.62   -2.89  O2


-----------------------------------------
Beginning of batch-reaction calculations.
-----------------------------------------

Reaction step 1.

Using solution 7.	
Using pure phase assemblage 7.	
Using kinetics 7.	

Kinetics 7.	

	Time step: 100 seconds

	Rate name       Delta Moles Total Moles   Reactant        Coefficient

	Dolomite(dis)    -0.000e+00   0.000e+00   Dolomite(dis)             1

-------------------------------Phase assemblage--------------------------------

                                                      Moles in assemblage
Phase               SI  log IAP  log K(T, P)   Initial       Final       Delta

Calcite          -8.79   -17.27     -8.48    0.000e+00           0   0.000e+00

-----------------------------Solution composition------------------------------

	Elements           Molality       Moles

	C                 1.133e-07   1.133e-07
	Ca                1.072e-07   1.072e-07
	Cl                2.000e-03   2.000e-03
	Mg                9.999e-04   9.999e-04

----------------------------Description of solution----------------------------

                                       pH  =   7.165      Charge balance
                                       pe  =  -3.542      Adjusted to redox equilibrium
                        Activity of water  =   1.000
                           Ionic strength  =   3.000e-03
                       Mass of water (kg)  =   1.000e+00
                 Total alkalinity (eq/kg)  =   2.268e-07
                       Total CO2 (mol/kg)  =   1.133e-07
                      Temperature (deg C)  =  25.00
                  Electrical balance (eq)  =   1.948e-16
 Percent error, 100*(Cat-|An|)/(Cat+|An|)  =   0.00
                               Iterations  =   6
                                  Total H  = 1.110124e+02
                                  Total O  = 5.550622e+01

----------------------------Distribution of species----------------------------

                                               Log       Log       Log    mole V
   Species          Molality    Activity  Molality  Activity     Gamma   cm3/mol

   OH-             1.553e-07   1.462e-07    -6.809    -6.835    -0.026     (0)  
   H+              7.236e-08   6.846e-08    -7.141    -7.165    -0.024      0.00
   H2O             5.551e+01   9.999e-01     1.744    -0.000     0.000     18.07
C(-4)         3.626e-13
   CH4             3.626e-13   3.628e-13   -12.441   -12.440     0.000     (0)  
C(4)          1.133e-07
   HCO3-           9.802e-08   9.244e-08    -7.009    -7.034    -0.025     (0)  
   CO2             1.422e-08   1.423e-08    -7.847    -7.847     0.000     (0)  
   MgHCO3+         9.098e-10   8.569e-10    -9.041    -9.067    -0.026     (0)  
   CO3-2           8.006e-11   6.333e-11   -10.097   -10.198    -0.102     (0)  
   MgCO3           4.784e-11   4.787e-11   -10.320   -10.320     0.000     (0)  
   CaHCO3+         1.060e-13   1.000e-13   -12.975   -13.000    -0.025     (0)  
   CaCO3           9.013e-15   9.019e-15   -14.045   -14.045     0.000     (0)  
Ca            1.072e-07
   Ca+2            1.072e-07   8.478e-08    -6.970    -7.072    -0.102     (0)  
   CaOH+           2.182e-13   2.055e-13   -12.661   -12.687    -0.026     (0)  
   CaHCO3+         1.060e-13   1.000e-13   -12.975   -13.000    -0.025     (0)  
   CaCO3           9.013e-15   9.019e-15   -14.045   -14.045     0.000     (0)  
Cl            2.000e-03
   Cl-             2.000e-03   1.882e-03    -2.699    -2.725    -0.026     (0)  
H(0)          8.031e-11
   H2              4.016e-11   4.018e-11   -10.396   -10.396     0.000     (0)  
Mg            9.999e-04
   Mg+2            9.998e-04   7.922e-04    -3.000    -3.101    -0.101     (0)  
   MgOH+           4.461e-08   4.201e-08    -7.351    -7.377    -0.026     (0)  
   MgHCO3+         9.098e-10   8.569e-10    -9.041    -9.067    -0.026     (0)  
   MgCO3           4.784e-11   4.787e-11   -10.320   -10.320     0.000     (0)  
O(0)          0.000e+00
   O2              0.000e+00   0.000e+00   -71.588   -71.588     0.000     (0)  

------------------------------Saturation indices-------------------------------

	Phase               SI   log IAP   log K(298 K,   1 atm)

	Aragonite        -8.93    -17.27   -8.34  CaCO3
	Calcite          -8.79    -17.27   -8.48  CaCO3
	CH4(g)           -9.60    -12.44   -2.84  CH4
	CO2(g)           -6.38     -7.85   -1.47  CO2
	Dolomite(dis)   -13.48    -30.57  -17.09  CaMg(CO3)2
	H2(g)            -7.20     35.79   43.00  H2
	O2(g)           -68.70    -71.59   -2.89  O2


------------------
End of simulation.
------------------

------------------------------------
Reading input data for simulation 8.
------------------------------------

	SOLUTION 8 #New Version 
	units mol/kgw 
	temp 25.000000 
	C(4)       1.891438252900e-07     # comp 
	Ca       1.776377833057e-07     # comp 
	Mg       9.997886615703e-04     # comp 
	Cl       1.999554085738e-03     # comp 
	pH       7.293434789382e+00 charge        # comp 
	pe       -3.673070629373e+00       # comp 
	EQUILIBRIUM_PHASES   8
	Calcite 0.000000000000e+00  0.000000000000e+00       # comp 
	KINETICS 8
	Dolomite(dis)  # comp
	m 0.000000000000e+00
	steps 1.000000000000e+02 in 1 steps
	RATES 8
	Dolomite(dis)
	  start
	rem kmech = k25*exp(-Eact/R*(1/T-1/298.15))*Product([Ci]^nyi)
	10  R = 8.314472
	11  deltaT = 1/TK - 1/298.15
	12  e = 2.7183
	13  Ea = 36100
	14  logK25 = -3.19
	15  ny = 0.5
	rem 16  mech_a = (10^logK25) * (e^(-Ea/R*deltaT)) * ACT("H+")^ny
	16  mech_a = (10^logK25) * ACT("H+")^ny
	23  Ea = 52200
	24  logK25 = -7.53
	rem 26  mech_b = (10^logK25) * (e^(-Ea/R*deltaT)) 
	26  mech_b = (10^logK25) 
	30  rate = mech_a + mech_b
	40  teta = 1 
	41  eta = 1
	42  Area = .001
	70  rate = Area * rate * (1 - SR("Dolomite(dis)")^teta)^eta
	80  moles = rate * time
	100 save moles
	      end
	END
-------------------------------------------
Beginning of initial solution calculations.
-------------------------------------------

Initial solution 8.	

-----------------------------Solution composition------------------------------

	Elements           Molality       Moles

	C(4)              1.891e-07   1.891e-07
	Ca                1.776e-07   1.776e-07
	Cl                2.000e-03   2.000e-03
	Mg                9.998e-04   9.998e-04

----------------------------Description of solution----------------------------

                                       pH  =   7.283      Charge balance
                                       pe  =  -3.673    
                        Activity of water  =   1.000
                           Ionic strength  =   3.000e-03
                       Mass of water (kg)  =   1.000e+00
                 Total alkalinity (eq/kg)  =   3.785e-07
                       Total CO2 (mol/kg)  =   1.891e-07
                      Temperature (deg C)  =  25.00
                  Electrical balance (eq)  =   1.906e-16
 Percent error, 100*(Cat-|An|)/(Cat+|An|)  =   0.00
                               Iterations  =   4
                                  Total H  = 1.110124e+02
                                  Total O  = 5.550622e+01

----------------------------Distribution of species----------------------------

                                               Log       Log       Log    mole V
   Species          Molality    Activity  Molality  Activity     Gamma   cm3/mol

   OH-             2.041e-07   1.922e-07    -6.690    -6.716    -0.026     (0)  
   H+              5.506e-08   5.209e-08    -7.259    -7.283    -0.024      0.00
   H2O             5.551e+01   9.999e-01     1.744    -0.000     0.000     18.07
C(4)          1.891e-07
   HCO3-           1.687e-07   1.591e-07    -6.773    -6.798    -0.025     (0)  
   CO2             1.862e-08   1.863e-08    -7.730    -7.730     0.000     (0)  
   MgHCO3+         1.565e-09   1.474e-09    -8.805    -8.831    -0.026     (0)  
   CO3-2           1.810e-10   1.432e-10    -9.742    -9.844    -0.102     (0)  
   MgCO3           1.082e-10   1.082e-10    -9.966    -9.966     0.000     (0)  
   CaHCO3+         3.022e-13   2.850e-13   -12.520   -12.545    -0.025     (0)  
   CaCO3           3.376e-14   3.379e-14   -13.472   -13.471     0.000     (0)  
Ca            1.776e-07
   Ca+2            1.776e-07   1.404e-07    -6.750    -6.852    -0.102     (0)  
   CaOH+           4.750e-13   4.474e-13   -12.323   -12.349    -0.026     (0)  
   CaHCO3+         3.022e-13   2.850e-13   -12.520   -12.545    -0.025     (0)  
   CaCO3           3.376e-14   3.379e-14   -13.472   -13.471     0.000     (0)  
Cl            2.000e-03
   Cl-             2.000e-03   1.882e-03    -2.699    -2.725    -0.026     (0)  
H(0)          8.520e-11
   H2              4.260e-11   4.263e-11   -10.371   -10.370     0.000     (0)  
Mg            9.998e-04
   Mg+2            9.997e-04   7.921e-04    -3.000    -3.101    -0.101     (0)  
   MgOH+           5.862e-08   5.521e-08    -7.232    -7.258    -0.026     (0)  
   MgHCO3+         1.565e-09   1.474e-09    -8.805    -8.831    -0.026     (0)  
   MgCO3           1.082e-10   1.082e-10    -9.966    -9.966     0.000     (0)  
O(0)          0.000e+00
   O2              0.000e+00   0.000e+00   -71.640   -71.640     0.000     (0)  

------------------------------Saturation indices-------------------------------

	Phase               SI   log IAP   log K(298 K,   1 atm)

	Aragonite        -8.36    -16.70   -8.34  CaCO3
	Calcite          -8.22    -16.70   -8.48  CaCO3
	CO2(g)           -6.26     -7.73   -1.47  CO2
	Dolomite(dis)   -12.55    -29.64  -17.09  CaMg(CO3)2
	H2(g)            -7.18     35.82   43.00  H2
	O2(g)           -68.75    -71.64   -2.89  O2


-----------------------------------------
Beginning of batch-reaction calculations.
-----------------------------------------

Reaction step 1.

Using solution 8.	
Using pure phase assemblage 8.	
Using kinetics 8.	

Kinetics 8.	

	Time step: 100 seconds

	Rate name       Delta Moles Total Moles   Reactant        Coefficient

	Dolomite(dis)    -0.000e+00   0.000e+00   Dolomite(dis)             1

-------------------------------Phase assemblage--------------------------------

                                                      Moles in assemblage
Phase               SI  log IAP  log K(T, P)   Initial       Final       Delta

Calcite          -8.22   -16.70     -8.48    0.000e+00           0   0.000e+00

-----------------------------Solution composition------------------------------

	Elements           Molality       Moles

	C                 1.891e-07   1.891e-07
	Ca                1.776e-07   1.776e-07
	Cl                2.000e-03   2.000e-03
	Mg                9.998e-04   9.998e-04

----------------------------Description of solution----------------------------

                                       pH  =   7.283      Charge balance
                                       pe  =  -3.663      Adjusted to redox equilibrium
                        Activity of water  =   1.000
                           Ionic strength  =   3.000e-03
                       Mass of water (kg)  =   1.000e+00
                 Total alkalinity (eq/kg)  =   3.785e-07
                       Total CO2 (mol/kg)  =   1.891e-07
                      Temperature (deg C)  =  25.00
                  Electrical balance (eq)  =   1.922e-16
 Percent error, 100*(Cat-|An|)/(Cat+|An|)  =   0.00
                               Iterations  =   6
                                  Total H  = 1.110124e+02
                                  Total O  = 5.550622e+01

----------------------------Distribution of species----------------------------

                                               Log       Log       Log    mole V
   Species          Molality    Activity  Molality  Activity     Gamma   cm3/mol

   OH-             2.041e-07   1.922e-07    -6.690    -6.716    -0.026     (0)  
   H+              5.506e-08   5.209e-08    -7.259    -7.283    -0.024      0.00
   H2O             5.551e+01   9.999e-01     1.744    -0.000     0.000     18.07
C(-4)         4.975e-13
   CH4             4.975e-13   4.979e-13   -12.303   -12.303     0.000     (0)  
C(4)          1.891e-07
   HCO3-           1.687e-07   1.591e-07    -6.773    -6.798    -0.025     (0)  
   CO2             1.862e-08   1.863e-08    -7.730    -7.730     0.000     (0)  
   MgHCO3+         1.565e-09   1.474e-09    -8.805    -8.831    -0.026     (0)  
   CO3-2           1.810e-10   1.432e-10    -9.742    -9.844    -0.102     (0)  
   MgCO3           1.082e-10   1.082e-10    -9.966    -9.966     0.000     (0)  
   CaHCO3+         3.022e-13   2.850e-13   -12.520   -12.545    -0.025     (0)  
   CaCO3           3.376e-14   3.379e-14   -13.472   -13.471     0.000     (0)  
Ca            1.776e-07
   Ca+2            1.776e-07   1.404e-07    -6.750    -6.852    -0.102     (0)  
   CaOH+           4.750e-13   4.474e-13   -12.323   -12.349    -0.026     (0)  
   CaHCO3+         3.022e-13   2.850e-13   -12.520   -12.545    -0.025     (0)  
   CaCO3           3.376e-14   3.379e-14   -13.472   -13.471     0.000     (0)  
Cl            2.000e-03
   Cl-             2.000e-03   1.882e-03    -2.699    -2.725    -0.026     (0)  
H(0)          8.126e-11
   H2              4.063e-11   4.066e-11   -10.391   -10.391     0.000     (0)  
Mg            9.998e-04
   Mg+2            9.997e-04   7.921e-04    -3.000    -3.101    -0.101     (0)  
   MgOH+           5.862e-08   5.521e-08    -7.232    -7.258    -0.026     (0)  
   MgHCO3+         1.565e-09   1.474e-09    -8.805    -8.831    -0.026     (0)  
   MgCO3           1.082e-10   1.082e-10    -9.966    -9.966     0.000     (0)  
O(0)          0.000e+00
   O2              0.000e+00   0.000e+00   -71.599   -71.598     0.000     (0)  

------------------------------Saturation indices-------------------------------

	Phase               SI   log IAP   log K(298 K,   1 atm)

	Aragonite        -8.36    -16.70   -8.34  CaCO3
	Calcite          -8.22    -16.70   -8.48  CaCO3
	CH4(g)           -9.46    -12.30   -2.84  CH4
	CO2(g)           -6.26     -7.73   -1.47  CO2
	Dolomite(dis)   -12.55    -29.64  -17.09  CaMg(CO3)2
	H2(g)            -7.20     35.80   43.00  H2
	O2(g)           -68.71    -71.60   -2.89  O2


------------------
End of simulation.
------------------

------------------------------------
Reading input data for simulation 9.
------------------------------------

	SOLUTION 9 #New Version 
	units mol/kgw 
	temp 25.000000 
	C(4)       3.083838707621e-07     # comp 
	Ca       2.871042889308e-07     # comp 
	Mg       9.996731353154e-04     # comp 
	Cl       1.999303477890e-03     # comp 
	pH       7.443694501651e+00 charge        # comp 
	pe       -3.824607945752e+00       # comp 
	EQUILIBRIUM_PHASES   9
	Calcite 0.000000000000e+00  0.000000000000e+00       # comp 
	KINETICS 9
	Dolomite(dis)  # comp
	m 0.000000000000e+00
	steps 1.000000000000e+02 in 1 steps
	RATES 9
	Dolomite(dis)
	  start
	rem kmech = k25*exp(-Eact/R*(1/T-1/298.15))*Product([Ci]^nyi)
	10  R = 8.314472
	11  deltaT = 1/TK - 1/298.15
	12  e = 2.7183
	13  Ea = 36100
	14  logK25 = -3.19
	15  ny = 0.5
	rem 16  mech_a = (10^logK25) * (e^(-Ea/R*deltaT)) * ACT("H+")^ny
	16  mech_a = (10^logK25) * ACT("H+")^ny
	23  Ea = 52200
	24  logK25 = -7.53
	rem 26  mech_b = (10^logK25) * (e^(-Ea/R*deltaT)) 
	26  mech_b = (10^logK25) 
	30  rate = mech_a + mech_b
	40  teta = 1 
	41  eta = 1
	42  Area = .001
	70  rate = Area * rate * (1 - SR("Dolomite(dis)")^teta)^eta
	80  moles = rate * time
	100 save moles
	      end
	END
-------------------------------------------
Beginning of initial solution calculations.
-------------------------------------------

Initial solution 9.	

-----------------------------Solution composition------------------------------

	Elements           Molality       Moles

	C(4)              3.084e-07   3.084e-07
	Ca                2.871e-07   2.871e-07
	Cl                1.999e-03   1.999e-03
	Mg                9.997e-04   9.997e-04

----------------------------Description of solution----------------------------

                                       pH  =   7.431      Charge balance
                                       pe  =  -3.825    
                        Activity of water  =   1.000
                           Ionic strength  =   3.000e-03
                       Mass of water (kg)  =   1.000e+00
                 Total alkalinity (eq/kg)  =   6.170e-07
                       Total CO2 (mol/kg)  =   3.084e-07
                      Temperature (deg C)  =  25.00
                  Electrical balance (eq)  =   1.908e-16
 Percent error, 100*(Cat-|An|)/(Cat+|An|)  =   0.00
                               Iterations  =   4
                                  Total H  = 1.110124e+02
                                  Total O  = 5.550622e+01

[...]

	Phase               SI   log IAP   log K(298 K,   1 atm)

	Aragonite        -0.14     -8.48   -8.34  CaCO3
	Calcite           0.00     -8.48   -8.48  CaCO3
	CH4(g)          -20.25    -23.09   -2.84  CH4
	CO2(g)           -6.18     -7.65   -1.47  CO2
	Dolomite(dis)    -7.17    -24.26  -17.09  CaMg(CO3)2
	H2(g)            -9.92     33.08   43.00  H2
	O2(g)           -63.27    -66.16   -2.89  O2


------------------
End of simulation.
------------------

--------------------------------------
Reading input data for simulation 100.
--------------------------------------

	SOLUTION 100 #New Version 
	units mol/kgw 
	temp 25.000000 
	C(4)       1.227217040077e-04     # comp 
	Ca       1.227217040087e-04     # comp 
	Mg       3.980341085943e-12     # comp 
	Cl       6.962588708907e-12     # comp 
	pH       9.909703055300e+00 charge        # comp 
	pe       -4.908404210116e+00       # comp 
	EQUILIBRIUM_PHASES   100
	Calcite 0.000000000000e+00  1.220004999993e-04       # comp 
	KINETICS 100
	Dolomite(dis)  # comp
	m 0.000000000000e+00
	steps 1.000000000000e+02 in 1 steps
	RATES 100
	Dolomite(dis)
	  start
	rem kmech = k25*exp(-Eact/R*(1/T-1/298.15))*Product([Ci]^nyi)
	10  R = 8.314472
	11  deltaT = 1/TK - 1/298.15
	12  e = 2.7183
	13  Ea = 36100
	14  logK25 = -3.19
	15  ny = 0.5
	rem 16  mech_a = (10^logK25) * (e^(-Ea/R*deltaT)) * ACT("H+")^ny
	16  mech_a = (10^logK25) * ACT("H+")^ny
	23  Ea = 52200
	24  logK25 = -7.53
	rem 26  mech_b = (10^logK25) * (e^(-Ea/R*deltaT)) 
	26  mech_b = (10^logK25) 
	30  rate = mech_a + mech_b
	40  teta = 1 
	41  eta = 1
	42  Area = .001
	70  rate = Area * rate * (1 - SR("Dolomite(dis)")^teta)^eta
	80  moles = rate * time
	100 save moles
	      end
	END
-------------------------------------------
Beginning of initial solution calculations.
-------------------------------------------

Initial solution 100.	

-----------------------------Solution composition------------------------------

	Elements           Molality       Moles

	C(4)              1.227e-04   1.227e-04
	Ca                1.227e-04   1.227e-04
	Cl                6.963e-12   6.963e-12
	Mg                3.980e-12   3.980e-12

----------------------------Description of solution----------------------------

                                       pH  =   9.910      Charge balance
                                       pe  =  -4.908    
                        Activity of water  =   1.000
                           Ionic strength  =   3.848e-04
                       Mass of water (kg)  =   1.000e+00
                 Total alkalinity (eq/kg)  =   2.454e-04
                       Total CO2 (mol/kg)  =   1.227e-04
                      Temperature (deg C)  =  25.00
                  Electrical balance (eq)  =   8.132e-20
 Percent error, 100*(Cat-|An|)/(Cat+|An|)  =   0.00
                               Iterations  =   4
                                  Total H  = 1.110126e+02
                                  Total O  = 5.550667e+01

----------------------------Distribution of species----------------------------

                                               Log       Log       Log    mole V
   Species          Molality    Activity  Molality  Activity     Gamma   cm3/mol

   OH-             8.317e-05   8.131e-05    -4.080    -4.090    -0.010     (0)  
   H+              1.258e-10   1.231e-10    -9.900    -9.910    -0.009      0.00
   H2O             5.551e+01   1.000e+00     1.744    -0.000     0.000     18.07
C(4)          1.227e-04
   HCO3-           8.316e-05   8.133e-05    -4.080    -4.090    -0.010     (0)  
   CO3-2           3.386e-05   3.098e-05    -4.470    -4.509    -0.039     (0)  
   CaCO3           5.564e-06   5.565e-06    -5.255    -5.255     0.000     (0)  
   CaHCO3+         1.134e-07   1.109e-07    -6.945    -6.955    -0.010     (0)  
   CO2             2.251e-08   2.251e-08    -7.648    -7.648     0.000     (0)  
   MgCO3           1.020e-13   1.020e-13   -12.991   -12.991     0.000     (0)  
   MgHCO3+         3.358e-15   3.283e-15   -14.474   -14.484    -0.010     (0)  
Ca            1.227e-04
   Ca+2            1.169e-04   1.069e-04    -3.932    -3.971    -0.039     (0)  
   CaCO3           5.564e-06   5.565e-06    -5.255    -5.255     0.000     (0)  
   CaOH+           1.474e-07   1.441e-07    -6.831    -6.841    -0.010     (0)  
   CaHCO3+         1.134e-07   1.109e-07    -6.945    -6.955    -0.010     (0)  
Cl            6.963e-12
   Cl-             6.963e-12   6.808e-12   -11.157   -11.167    -0.010     (0)  
H(0)          1.407e-13
   H2              7.037e-14   7.037e-14   -13.153   -13.153     0.000     (0)  
Mg            3.980e-12
   Mg+2            3.771e-12   3.450e-12   -11.424   -11.462    -0.039     (0)  
   MgOH+           1.041e-13   1.018e-13   -12.983   -12.992    -0.010     (0)  
   MgCO3           1.020e-13   1.020e-13   -12.991   -12.991     0.000     (0)  
   MgHCO3+         3.358e-15   3.283e-15   -14.474   -14.484    -0.010     (0)  
O(0)          0.000e+00
   O2              0.000e+00   0.000e+00   -66.075   -66.075     0.000     (0)  

------------------------------Saturation indices-------------------------------

	Phase               SI   log IAP   log K(298 K,   1 atm)

	Aragonite        -0.14     -8.48   -8.34  CaCO3
	Calcite           0.00     -8.48   -8.48  CaCO3
	CO2(g)           -6.18     -7.65   -1.47  CO2
	Dolomite(dis)    -7.36    -24.45  -17.09  CaMg(CO3)2
	H2(g)            -9.96     33.04   43.00  H2
	O2(g)           -63.18    -66.07   -2.89  O2


-----------------------------------------
Beginning of batch-reaction calculations.
-----------------------------------------

Reaction step 1.

Using solution 100.	
Using pure phase assemblage 100.	
Using kinetics 100.	

Kinetics 100.	

	Time step: 100 seconds

	Rate name       Delta Moles Total Moles   Reactant        Coefficient

	Dolomite(dis)    -0.000e+00   0.000e+00   Dolomite(dis)             1

-------------------------------Phase assemblage--------------------------------

                                                      Moles in assemblage
Phase               SI  log IAP  log K(T, P)   Initial       Final       Delta

Calcite           0.00    -8.48     -8.48    1.220e-04   1.220e-04   1.747e-17

-----------------------------Solution composition------------------------------

	Elements           Molality       Moles

	C                 1.227e-04   1.227e-04
	Ca                1.227e-04   1.227e-04
	Cl                6.963e-12   6.963e-12
	Mg                3.980e-12   3.980e-12

----------------------------Description of solution----------------------------

                                       pH  =   9.910      Charge balance
                                       pe  =  -4.901      Adjusted to redox equilibrium
                        Activity of water  =   1.000
                           Ionic strength  =   3.848e-04
                       Mass of water (kg)  =   1.000e+00
                 Total alkalinity (eq/kg)  =   2.454e-04
                       Total CO2 (mol/kg)  =   1.227e-04
                      Temperature (deg C)  =  25.00
                  Electrical balance (eq)  =   1.355e-19
 Percent error, 100*(Cat-|An|)/(Cat+|An|)  =   0.00
                               Iterations  =   5
                                  Total H  = 1.110126e+02
                                  Total O  = 5.550667e+01

----------------------------Distribution of species----------------------------

                                               Log       Log       Log    mole V
   Species          Molality    Activity  Molality  Activity     Gamma   cm3/mol

   OH-             8.317e-05   8.131e-05    -4.080    -4.090    -0.010     (0)  
   H+              1.258e-10   1.231e-10    -9.900    -9.910    -0.009      0.00
   H2O             5.551e+01   1.000e+00     1.744    -0.000     0.000     18.07
C(-4)         4.682e-24
   CH4             4.682e-24   4.683e-24   -23.330   -23.330     0.000     (0)  
C(4)          1.227e-04
   HCO3-           8.316e-05   8.133e-05    -4.080    -4.090    -0.010     (0)  
   CO3-2           3.386e-05   3.098e-05    -4.470    -4.509    -0.039     (0)  
   CaCO3           5.564e-06   5.565e-06    -5.255    -5.255     0.000     (0)  
   CaHCO3+         1.134e-07   1.109e-07    -6.945    -6.955    -0.010     (0)  
   CO2             2.251e-08   2.251e-08    -7.648    -7.648     0.000     (0)  
   MgCO3           1.020e-13   1.020e-13   -12.991   -12.991     0.000     (0)  
   MgHCO3+         3.358e-15   3.283e-15   -14.474   -14.484    -0.010     (0)  
Ca            1.227e-04
   Ca+2            1.169e-04   1.069e-04    -3.932    -3.971    -0.039     (0)  
   CaCO3           5.564e-06   5.565e-06    -5.255    -5.255     0.000     (0)  
   CaOH+           1.474e-07   1.441e-07    -6.831    -6.841    -0.010     (0)  
   CaHCO3+         1.134e-07   1.109e-07    -6.945    -6.955    -0.010     (0)  
Cl            6.963e-12
   Cl-             6.963e-12   6.808e-12   -11.157   -11.167    -0.010     (0)  
H(0)          1.358e-13
   H2              6.791e-14   6.791e-14   -13.168   -13.168     0.000     (0)  
Mg            3.980e-12
   Mg+2            3.771e-12   3.450e-12   -11.424   -11.462    -0.039     (0)  
   MgOH+           1.041e-13   1.018e-13   -12.983   -12.992    -0.010     (0)  
   MgCO3           1.020e-13   1.020e-13   -12.991   -12.991     0.000     (0)  
   MgHCO3+         3.358e-15   3.283e-15   -14.474   -14.484    -0.010     (0)  
O(0)          0.000e+00
   O2              0.000e+00   0.000e+00   -66.044   -66.044     0.000     (0)  

------------------------------Saturation indices-------------------------------

	Phase               SI   log IAP   log K(298 K,   1 atm)

	Aragonite        -0.14     -8.48   -8.34  CaCO3
	Calcite           0.00     -8.48   -8.48  CaCO3
	CH4(g)          -20.49    -23.33   -2.84  CH4
	CO2(g)           -6.18     -7.65   -1.47  CO2
	Dolomite(dis)    -7.36    -24.45  -17.09  CaMg(CO3)2
	H2(g)            -9.98     33.02   43.00  H2
	O2(g)           -63.15    -66.04   -2.89  O2


------------------
End of simulation.
------------------

--------------------------------------
Reading input data for simulation 101.
--------------------------------------

	SOLUTION 101 #New Version 
	units mol/kgw 
	temp 25.000000 
	C(4)       1.227217039705e-04     # comp 
	Ca       1.227217039713e-04     # comp 
	Mg       3.244793800771e-12     # comp 
	Cl       5.490994698908e-12     # comp 
	pH       9.909703055353e+00 charge        # comp 
	pe       -5.090869836541e+00       # comp 
	EQUILIBRIUM_PHASES   101
	Calcite 0.000000000000e+00  1.220004999993e-04       # comp 
	KINETICS 101
	Dolomite(dis)  # comp
	m 0.000000000000e+00
	steps 1.000000000000e+02 in 1 steps
	RATES 101
	Dolomite(dis)
	  start
	rem kmech = k25*exp(-Eact/R*(1/T-1/298.15))*Product([Ci]^nyi)
	10  R = 8.314472
	11  deltaT = 1/TK - 1/298.15
	12  e = 2.7183
	13  Ea = 36100
	14  logK25 = -3.19
	15  ny = 0.5
	rem 16  mech_a = (10^logK25) * (e^(-Ea/R*deltaT)) * ACT("H+")^ny
	16  mech_a = (10^logK25) * ACT("H+")^ny
	23  Ea = 52200
	24  logK25 = -7.53
	rem 26  mech_b = (10^logK25) * (e^(-Ea/R*deltaT)) 
	26  mech_b = (10^logK25) 
	30  rate = mech_a + mech_b
	40  teta = 1 
	41  eta = 1
	42  Area = .001
	70  rate = Area * rate * (1 - SR("Dolomite(dis)")^teta)^eta
	80  moles = rate * time
	100 save moles
	      end
	END
-------------------------------------------
Beginning of initial solution calculations.
-------------------------------------------

Initial solution 101.	

-----------------------------Solution composition------------------------------

	Elements           Molality       Moles

	C(4)              1.227e-04   1.227e-04
	Ca                1.227e-04   1.227e-04
	Cl                5.491e-12   5.491e-12
	Mg                3.245e-12   3.245e-12

----------------------------Description of solution----------------------------

                                       pH  =   9.910      Charge balance
                                       pe  =  -5.091    
                        Activity of water  =   1.000
                           Ionic strength  =   3.848e-04
                       Mass of water (kg)  =   1.000e+00
                 Total alkalinity (eq/kg)  =   2.454e-04
                       Total CO2 (mol/kg)  =   1.227e-04
                      Temperature (deg C)  =  25.00
                  Electrical balance (eq)  =   4.879e-19
 Percent error, 100*(Cat-|An|)/(Cat+|An|)  =   0.00
                               Iterations  =   4
                                  Total H  = 1.110126e+02
                                  Total O  = 5.550667e+01

----------------------------Distribution of species----------------------------

                                               Log       Log       Log    mole V
   Species          Molality    Activity  Molality  Activity     Gamma   cm3/mol

   OH-             8.317e-05   8.131e-05    -4.080    -4.090    -0.010     (0)  
   H+              1.258e-10   1.231e-10    -9.900    -9.910    -0.009      0.00
   H2O             5.551e+01   1.000e+00     1.744    -0.000     0.000     18.07
C(4)          1.227e-04
   HCO3-           8.316e-05   8.133e-05    -4.080    -4.090    -0.010     (0)  
   CO3-2           3.386e-05   3.098e-05    -4.470    -4.509    -0.039     (0)  
   CaCO3           5.564e-06   5.565e-06    -5.255    -5.255     0.000     (0)  
   CaHCO3+         1.134e-07   1.109e-07    -6.945    -6.955    -0.010     (0)  
   CO2             2.251e-08   2.251e-08    -7.648    -7.648     0.000     (0)  
   MgCO3           8.315e-14   8.315e-14   -13.080   -13.080     0.000     (0)  
   MgHCO3+         2.737e-15   2.677e-15   -14.563   -14.572    -0.010     (0)  
Ca            1.227e-04
   Ca+2            1.169e-04   1.069e-04    -3.932    -3.971    -0.039     (0)  
   CaCO3           5.564e-06   5.565e-06    -5.255    -5.255     0.000     (0)  
   CaOH+           1.474e-07   1.441e-07    -6.831    -6.841    -0.010     (0)  
   CaHCO3+         1.134e-07   1.109e-07    -6.945    -6.955    -0.010     (0)  
Cl            5.491e-12
   Cl-             5.491e-12   5.369e-12   -11.260   -11.270    -0.010     (0)  
H(0)          3.261e-13
   H2              1.630e-13   1.631e-13   -12.788   -12.788     0.000     (0)  
Mg            3.245e-12
   Mg+2            3.074e-12   2.813e-12   -11.512   -11.551    -0.039     (0)  
   MgOH+           8.484e-14   8.295e-14   -13.071   -13.081    -0.010     (0)  
   MgCO3           8.315e-14   8.315e-14   -13.080   -13.080     0.000     (0)  
   MgHCO3+         2.737e-15   2.677e-15   -14.563   -14.572    -0.010     (0)  
O(0)          0.000e+00
   O2              0.000e+00   0.000e+00   -66.805   -66.805     0.000     (0)  

------------------------------Saturation indices-------------------------------

	Phase               SI   log IAP   log K(298 K,   1 atm)

	Aragonite        -0.14     -8.48   -8.34  CaCO3
	Calcite           0.00     -8.48   -8.48  CaCO3
	CO2(g)           -6.18     -7.65   -1.47  CO2
	Dolomite(dis)    -7.45    -24.54  -17.09  CaMg(CO3)2
	H2(g)            -9.60     33.40   43.00  H2
	O2(g)           -63.91    -66.80   -2.89  O2


-----------------------------------------
Beginning of batch-reaction calculations.
-----------------------------------------

Reaction step 1.

Using solution 101.	
Using pure phase assemblage 101.	
Using kinetics 101.	

Kinetics 101.	

	Time step: 100 seconds

	Rate name       Delta Moles Total Moles   Reactant        Coefficient

	Dolomite(dis)    -0.000e+00   0.000e+00   Dolomite(dis)             1

-------------------------------Phase assemblage--------------------------------

                                                      Moles in assemblage
Phase               SI  log IAP  log K(T, P)   Initial       Final       Delta

Calcite           0.00    -8.48     -8.48    1.220e-04   1.220e-04   2.753e-17

-----------------------------Solution composition------------------------------

	Elements           Molality       Moles

	C                 1.227e-04   1.227e-04
	Ca                1.227e-04   1.227e-04
	Cl                5.491e-12   5.491e-12
	Mg                3.245e-12   3.245e-12

----------------------------Description of solution----------------------------

                                       pH  =   9.910      Charge balance
                                       pe  =  -5.060      Adjusted to redox equilibrium
                        Activity of water  =   1.000
                           Ionic strength  =   3.848e-04
                       Mass of water (kg)  =   1.000e+00
                 Total alkalinity (eq/kg)  =   2.454e-04
                       Total CO2 (mol/kg)  =   1.227e-04
                      Temperature (deg C)  =  25.00
                  Electrical balance (eq)  =   3.930e-19
 Percent error, 100*(Cat-|An|)/(Cat+|An|)  =   0.00
                               Iterations  =   5
                                  Total H  = 1.110126e+02
                                  Total O  = 5.550667e+01

----------------------------Distribution of species----------------------------

                                               Log       Log       Log    mole V
   Species          Molality    Activity  Molality  Activity     Gamma   cm3/mol

   OH-             8.317e-05   8.131e-05    -4.080    -4.090    -0.010     (0)  
   H+              1.258e-10   1.231e-10    -9.900    -9.910    -0.009      0.00
   H2O             5.551e+01   1.000e+00     1.744    -0.000     0.000     18.07
C(-4)         8.763e-23
   CH4             8.763e-23   8.764e-23   -22.057   -22.057     0.000     (0)  
C(4)          1.227e-04
   HCO3-           8.316e-05   8.133e-05    -4.080    -4.090    -0.010     (0)  
   CO3-2           3.386e-05   3.098e-05    -4.470    -4.509    -0.039     (0)  
   CaCO3           5.564e-06   5.565e-06    -5.255    -5.255     0.000     (0)  
   CaHCO3+         1.134e-07   1.109e-07    -6.945    -6.955    -0.010     (0)  
   CO2             2.251e-08   2.251e-08    -7.648    -7.648     0.000     (0)  
   MgCO3           8.315e-14   8.315e-14   -13.080   -13.080     0.000     (0)  
   MgHCO3+         2.737e-15   2.677e-15   -14.563   -14.572    -0.010     (0)  
Ca            1.227e-04
   Ca+2            1.169e-04   1.069e-04    -3.932    -3.971    -0.039     (0)  
   CaCO3           5.564e-06   5.565e-06    -5.255    -5.255     0.000     (0)  
   CaOH+           1.474e-07   1.441e-07    -6.831    -6.841    -0.010     (0)  
   CaHCO3+         1.134e-07   1.109e-07    -6.945    -6.955    -0.010     (0)  
Cl            5.491e-12
   Cl-             5.491e-12   5.369e-12   -11.260   -11.270    -0.010     (0)  
H(0)          2.825e-13
   H2              1.412e-13   1.413e-13   -12.850   -12.850     0.000     (0)  
Mg            3.245e-12
   Mg+2            3.074e-12   2.813e-12   -11.512   -11.551    -0.039     (0)  
   MgOH+           8.484e-14   8.295e-14   -13.071   -13.081    -0.010     (0)  
   MgCO3           8.315e-14   8.315e-14   -13.080   -13.080     0.000     (0)  
   MgHCO3+         2.737e-15   2.677e-15   -14.563   -14.572    -0.010     (0)  
O(0)          0.000e+00
   O2              0.000e+00   0.000e+00   -66.680   -66.680     0.000     (0)  

------------------------------Saturation indices-------------------------------

	Phase               SI   log IAP   log K(298 K,   1 atm)

	Aragonite        -0.14     -8.48   -8.34  CaCO3
	Calcite           0.00     -8.48   -8.48  CaCO3
	CH4(g)          -19.21    -22.06   -2.84  CH4
	CO2(g)           -6.18     -7.65   -1.47  CO2
	Dolomite(dis)    -7.45    -24.54  -17.09  CaMg(CO3)2
	H2(g)            -9.66     33.34   43.00  H2
	O2(g)           -63.79    -66.68   -2.89  O2


------------------
End of simulation.
------------------

--------------------------------------
Reading input data for simulation 102.
--------------------------------------

------------------------------
End of Run after 0.26 Seconds.
------------------------------

